/*--------------------------------*- C++ -*----------------------------------*\
| =========                 |                                                 |
| \\      /  F ield         | OpenFOAM: The Open Source CFD Toolbox           |
|  \\    /   O peration     | Version:  v2012                                 |
|   \\  /    A nd           | Website:  www.openfoam.com                      |
|    \\/     M anipulation  |                                                 |
\*---------------------------------------------------------------------------*/
FoamFile
{
    version     2.0;
    format      ascii;
    class       scalarListList;
    location    "constant/bottomAir";
    object      F;
}
// * * * * * * * * * * * * * * * * * * * * * * * * * * * * * * * * * * * * * //


120
(

91
(
0.005040237
0.004928035
0.004803263
0.004528266
0.2489867
0.009526453
0.00227519
0.04663839
0.01186376
0.01436841
0.006916261
0.003329077
0.005874914
0.001605459
0.002905267
0.001632718
0.001004052
0.0008558184
0.1453653
0.1453653
0.02899717
0.01699821
0.01699821
0.00423749
0.00423749
0.002611526
0.001605722
0.001605722
0.0007675284
0.0007675284
0.0005733921
0.0004237203
0.0004237203
0.00035034
0.0002578637
0.0002642026
0.002242081
0.002242081
0.003379471
0.004968093
0.004968093
0.005028747
0.005028747
0.004304586
0.003962998
0.003962998
0.002863173
0.002863173
0.002385101
0.002028333
0.002028333
0.001840791
0.001065807
0.0006693988
0.0005460762
0.001755789
0.00103141
0.0006963415
0.0009376488
0.0005001122
0.0009628488
0.08597177
0.03166326
0.01028805
0.006147495
0.03649304
0.02277486
0.008855627
0.008801181
0.01073695
0.004138563
0.002677961
0.004660785
0.003545972
0.001016832
0.002142124
0.002462491
0.002097694
0.001461768
0.00193525
0.001371866
0.001979102
0.001397247
0.001979102
0.001397247
0.001595308
0.008913285
0.01308905
0.001114245
0.0007581579
0.0006336513
)


92
(
0.004928035
0.00502119
0.004853445
0.07799127
0.03279076
0.007191077
0.05489205
0.03123983
0.02190111
0.01558207
0.007875748
0.009836296
0.00360405
0.005076404
0.002918092
0.001818558
0.001603552
0.01981113
0.04660713
0.06950143
0.01651334
0.02293546
0.006988038
0.008140655
0.005808805
0.003202074
0.0034864
0.001667431
0.001759063
0.001377374
0.0009630333
0.0009988724
0.00082067
0.0006179743
0.0006439792
0.003502075
0.004018547
0.005861383
0.006919239
0.007744459
0.006084796
0.006609323
0.005582342
0.004294281
0.004556672
0.002878425
0.003005535
0.002507188
0.001940461
0.002004215
0.001854451
0.00137353
0.0007865113
0.0004518645
0.000282479
0.0002370697
0.0008175351
0.0004640759
0.0003146635
0.000536299
0.0003442525
0.1630639
0.01586948
0.004651918
0.003216703
0.2050305
0.0210556
0.006067908
0.03379723
0.01360105
0.002694901
0.005265057
0.005611331
0.002817098
0.001334793
0.002214961
0.001900873
0.0009125867
0.0006300431
0.0009756077
0.000663835
0.0009854819
0.0006951988
0.001090908
0.0007533143
0.0009317394
0.01010401
0.01672818
0.0006915822
0.0005055326
0.0004889975
0.0003810231
)


90
(
0.004803263
0.004853445
0.005539255
0.22117
0.22117
0.006931279
0.02639559
0.02639559
0.007373046
0.007373046
0.003590412
0.002957487
0.001364349
0.00146733
0.001455463
0.0008167374
0.0005474452
0.0005020062
0.02507335
0.01806043
0.01171626
0.02083666
0.01761264
0.00948482
0.008717775
0.005700659
0.004604644
0.004384079
0.002482569
0.00240516
0.001815534
0.001464183
0.001432354
0.001266802
0.0009124283
0.000940451
0.008122479
0.006995711
0.007194478
0.01226792
0.01105281
0.008285539
0.007766173
0.005601817
0.00492163
0.004721008
0.002965195
0.002882357
0.002241986
0.001867948
0.001830421
0.001695189
0.001214665
0.001268272
0.002127092
0.001285355
0.0008288178
0.0007160477
0.002322656
0.001368082
0.002127092
0.001802152
0.001140637
0.0009067039
0.01692229
0.01784277
0.00895294
0.007582645
0.03244236
0.02721354
0.01378774
0.03244236
0.02721354
0.007582645
0.01692229
0.01784277
0.00895294
0.006016963
0.008899914
0.006905196
0.002202681
0.001611475
0.002541917
0.001808829
0.0126466
0.01711691
0.002202681
0.001611475
0.00169425
0.001300112
)


91
(
0.004528266
0.004928035
0.005885411
0.03279076
0.07799127
0.02630062
0.03123983
0.05489205
0.01558207
0.02190111
0.01349105
0.007925751
0.005400261
0.005314824
0.004388453
0.002630922
0.00211429
0.001866516
0.001683828
0.007521664
0.009533771
0.01152145
0.01152201
0.01368753
0.007780838
0.008692525
0.006817937
0.004592186
0.004938675
0.002751934
0.002893404
0.002345879
0.001727442
0.001791078
0.001563517
0.001169114
0.001238397
0.01009299
0.01621431
0.01827481
0.01347247
0.0174061
0.008063628
0.009225703
0.007048191
0.004408238
0.004774842
0.002518941
0.002653433
0.002123935
0.001533984
0.001590628
0.001356793
0.001017064
0.001070269
0.0006666852
0.0004025158
0.0002594065
0.0007717738
0.0007865113
0.0004518645
0.000282479
0.0006909034
0.0004127569
0.0003153277
0.005265057
0.005611331
0.002817098
0.002694901
0.03379723
0.01360105
0.006067908
0.2050305
0.0210556
0.003216703
0.1630639
0.01586948
0.004651918
0.01411331
0.007231628
0.003615271
0.0006915822
0.0005055326
0.0008835286
0.0006142276
0.0114669
0.01915637
0.0009125867
0.0006300431
0.0007339754
0.0005300437
)


93
(
0.004928035
0.005040237
0.006158647
0.009526453
0.2489867
0.05954025
0.01186376
0.04663839
0.006916261
0.01436841
0.01023635
0.003786501
0.003582495
0.003192455
0.002178168
0.001245637
0.001052423
0.004473399
0.004473399
0.005870732
0.008460718
0.008460718
0.007012515
0.007012515
0.005531052
0.004696919
0.004696919
0.003026603
0.003026603
0.002433446
0.001983486
0.001983486
0.001851739
0.001342209
0.001419599
0.03248899
0.03248899
0.02079162
0.02358929
0.02358929
0.009163398
0.009163398
0.005999239
0.004043004
0.004043004
0.002066779
0.002066779
0.001566574
0.001181654
0.001181654
0.001000019
0.0007339821
0.0007564601
0.001246393
0.0008075348
0.0005460762
0.001840791
0.001065807
0.0006693988
0.001755789
0.00103141
0.0007791124
0.002677961
0.004660785
0.003545972
0.004138563
0.008801181
0.01073695
0.008855627
0.03649304
0.02277486
0.006147495
0.08597177
0.03166326
0.01028805
0.03649304
0.02277486
0.01012568
0.001114245
0.0008767214
0.001545884
0.001146439
0.01166049
0.01707719
0.0007809826
0.0005312996
0.0007809826
0.0005312996
0.0006173127
0.002097694
0.001461768
0.00193525
0.001371866
)


90
(
0.004431404
0.004708328
0.004926917
0.006270941
0.003129128
0.04405082
0.2005043
0.005735885
0.0288749
0.00468431
0.01251571
0.01255692
0.003151862
0.004615308
0.003614266
0.002052399
0.001575881
0.001255397
0.002180996
0.00224163
0.003449259
0.004849883
0.004967347
0.004933594
0.005028285
0.004363168
0.00390579
0.003962792
0.002831818
0.002863089
0.002403511
0.002011284
0.002028299
0.118818
0.1319059
0.06113348
0.01534103
0.01691439
0.004035668
0.004234377
0.002710212
0.001562905
0.00160541
0.0007546601
0.0007674736
0.0005801848
0.0004188711
0.0004237067
0.0003475903
0.0002578595
0.0002652443
0.0008047103
0.0007834039
0.0004323572
0.001469018
0.0008618552
0.0005456583
0.001540295
0.0008906403
0.0006659212
0.0008560855
0.001800137
0.00170448
0.002250294
0.002273042
0.003935748
0.00457903
0.007647115
0.009151659
0.003990819
0.0364037
0.01972324
0.007482987
0.1727969
0.02770745
0.009890117
0.0006345248
0.0005299714
0.0009334528
0.008690065
0.01317444
0.001931917
0.001370565
0.001978806
0.001397117
0.001623922
0.001624171
0.00114949
0.001761051
0.001225046
)


88
(
0.005040237
0.004928035
0.004803263
0.004528266
0.0008081091
0.001268215
0.002149404
0.004053002
0.002347559
0.004113898
0.00892524
0.01095646
0.02483307
0.002596999
0.005508317
0.09548488
0.1942446
0.0002067834
0.0002067834
0.0002611694
0.0003272039
0.0003272039
0.0005620821
0.0005620821
0.0007857806
0.001085859
0.001085859
0.002512899
0.002512899
0.004418766
0.007908985
0.007908985
0.1571445
0.04422613
0.1398064
0.002410279
0.002410279
0.002816097
0.003386438
0.003386438
0.004544099
0.004544099
0.004659691
0.005246461
0.005246461
0.004578895
0.003981869
0.002735859
0.008099887
0.02328984
0.08031492
0.04436957
0.007127569
0.01788005
0.02392351
0.005067632
0.009495452
0.005832772
0.003185477
0.004515515
0.003653316
0.001914927
0.002199344
0.001507175
0.0006019931
0.0009424944
0.001591175
0.001973599
0.0005886593
0.0009144399
0.001247054
0.0005512125
0.0008374029
0.00115269
0.001461768
0.002097694
0.001371866
0.00193525
0.001397247
0.001979102
0.001397247
0.001979102
0.001595308
0.008913285
0.01308905
0.001114245
0.0006336513
0.0007581579
)


91
(
0.004928035
0.00502119
0.004853445
0.001470526
0.002283601
0.003804471
0.003516092
0.006957798
0.005733389
0.00970701
0.01440256
0.02490823
0.03447329
0.008059505
0.01793486
0.08086879
0.06278125
0.0004871296
0.0004984211
0.0006379745
0.0007548113
0.0007785028
0.001253019
0.001309166
0.00186905
0.002276963
0.002433863
0.004652095
0.0052029
0.009319757
0.0107745
0.01339729
0.02976721
0.03836366
0.08806656
0.001402763
0.001606884
0.001652924
0.002357799
0.002447274
0.003077841
0.003520924
0.003703196
0.005178235
0.005553661
0.00651741
0.006797843
0.007491873
0.006886937
0.006731072
0.005010636
0.003616941
0.01123239
0.06238763
0.2974944
0.004029561
0.014114
0.03558556
0.003433373
0.009996188
0.02719311
0.002352047
0.004806879
0.006500571
0.001429592
0.002117309
0.001903726
0.0002538125
0.0003990325
0.0006782546
0.0009007762
0.0002584525
0.0004089427
0.0005863939
0.0003102566
0.0006364823
0.0006300431
0.0009125867
0.000663835
0.0009756077
0.0006951988
0.0009854819
0.0007533143
0.001090908
0.0009317394
0.01010401
0.01672818
0.0005055326
0.0006915822
0.0003810231
0.0004889975
)


89
(
0.004803263
0.004853445
0.005539255
0.0004039943
0.0004555103
0.0006342007
0.001075781
0.001210989
0.002033885
0.002621998
0.004521137
0.004521007
0.01453195
0.01311728
0.00740872
0.0344958
0.06371368
0.3786328
0.0007541265
0.0007436636
0.0009083401
0.001156054
0.001134646
0.00188759
0.001838806
0.002360436
0.003339221
0.003211447
0.006521568
0.006121248
0.007740613
0.01408032
0.01253095
0.03747415
0.02200324
0.01510437
0.001018346
0.001004929
0.00120572
0.001509236
0.001483122
0.002339378
0.002284261
0.002807567
0.003801908
0.003674438
0.006402421
0.006080825
0.006859744
0.01044412
0.009620047
0.01461049
0.01073053
0.007018515
0.007478777
0.0152714
0.02083097
0.02369009
0.009245256
0.02203837
0.03859109
0.009245256
0.02203837
0.02369009
0.007478777
0.0152714
0.02083097
0.005140534
0.008268328
0.008413211
0.0007490804
0.001145469
0.001862485
0.002502979
0.0007822022
0.001213483
0.0006887918
0.001025335
0.002135366
0.001611475
0.002202681
0.001808829
0.002541917
0.0126466
0.01711691
0.001611475
0.002202681
0.001300112
0.00169425
)


90
(
0.004528266
0.004928035
0.005885411
0.001374875
0.001752613
0.002089424
0.003367234
0.004490272
0.005834648
0.01040001
0.01538865
0.01100496
0.03237175
0.02228079
0.02832652
0.05552472
0.03927584
0.06957973
0.0009387746
0.0009613867
0.001201272
0.001393929
0.0014381
0.002166847
0.002260604
0.003012927
0.003537063
0.003755843
0.005993536
0.00655319
0.00890959
0.009825233
0.01128435
0.01360421
0.01403221
0.01122029
0.0008110349
0.0008300199
0.001046679
0.001224288
0.001262693
0.001950373
0.002036299
0.002784143
0.003306407
0.003524333
0.005950728
0.006591815
0.009878556
0.01074891
0.01290428
0.0174553
0.0206337
0.01990677
0.002352047
0.004806879
0.006500571
0.02719311
0.003433373
0.009996188
0.03558556
0.004029561
0.014114
0.2974944
0.003616941
0.01123239
0.06238763
0.002580217
0.005850388
0.01652961
0.0002344255
0.0003586524
0.0005836015
0.0008210953
0.0002538125
0.0003990325
0.0006782546
0.0002385316
0.0003670739
0.0008133824
0.0005055326
0.0006915822
0.0006142276
0.0008835286
0.0114669
0.01915637
0.0006300431
0.0009125867
0.0005300437
0.0007339754
)


95
(
0.004928035
0.005040237
0.006158647
0.0008081091
0.001023901
0.001268215
0.001691932
0.002149404
0.002708695
0.002849342
0.007962836
0.01081786
0.005100185
0.01965904
0.009286784
0.0613985
0.2360849
0.0130694
0.05042843
0.0011183
0.0011183
0.00134601
0.001624684
0.001624684
0.002441449
0.002441449
0.003001714
0.003769933
0.003769933
0.005804858
0.005804858
0.006486597
0.008070468
0.008070468
0.008675689
0.007437894
0.005148773
0.0005928145
0.0005928145
0.0007418558
0.000923025
0.000923025
0.001544207
0.001544207
0.002098768
0.002844255
0.002844255
0.005964428
0.005964428
0.009026017
0.01461757
0.01461757
0.04704683
0.03467241
0.02935564
0.003185477
0.004515515
0.003653316
0.005832772
0.005067632
0.009495452
0.02392351
0.007127569
0.01788005
0.04436957
0.008099887
0.02328984
0.08031492
0.007127569
0.01788005
0.04438596
0.0007290404
0.001114132
0.001587572
0.0006019931
0.0009424944
0.001591175
0.0005886593
0.0009144399
0.002063211
0.0008767214
0.001114245
0.001146439
0.001545884
0.01166049
0.01707719
0.0005312996
0.0007809826
0.0005312996
0.0007809826
0.0006173127
0.001461768
0.002097694
0.001371866
0.00193525
)


89
(
0.004431404
0.004708328
0.004926917
0.006270941
0.0009516137
0.001290008
0.001463451
0.002401551
0.003214666
0.002542643
0.01013217
0.01079999
0.003880835
0.01232751
0.005413292
0.2032063
0.05612695
0.005123771
0.01119803
0.002387201
0.002410226
0.002841111
0.003343891
0.003386306
0.004468814
0.004543784
0.004732046
0.005134217
0.005245834
0.004459246
0.003981154
0.002782392
0.0002053003
0.0002067809
0.0002629349
0.0003240376
0.0003271965
0.0005543627
0.0005620557
0.0007975054
0.001063177
0.001085735
0.002424848
0.002511997
0.00467917
0.007377894
0.007895288
0.1293291
0.04343199
0.1590376
0.001604779
0.001847148
0.001209665
0.001432
0.002674464
0.003807796
0.007297416
0.004264353
0.008063161
0.01094538
0.006010674
0.01533423
0.03730728
0.006837012
0.02008763
0.1834698
0.000733043
0.0004601612
0.000699507
0.0004914525
0.0007639441
0.001274906
0.0005025953
0.0007874128
0.001806848
0.0005299714
0.0006345248
0.0009334528
0.008690065
0.01317444
0.001370565
0.001931917
0.001397117
0.001978806
0.001623922
0.00114949
0.001624171
0.001225046
0.001761051
)


82
(
0.149392
0.04679476
0.132702
0.01967446
0.005715871
0.002346845
0.0004848654
0.0008823156
0.0002423966
0.0008249249
0.1308801
0.04541158
0.01900046
0.02129314
0.02063204
0.002098487
0.004500635
0.00308448
0.0004753021
0.00121942
0.0001579586
0.0004334366
0.0004211032
6.616278e-05
0.0001874241
4.229481e-05
9.30831e-05
0.000116358
0.002210053
0.00559318
0.006273039
0.00178536
0.004596276
0.001046446
0.00279394
0.002820152
0.0005401829
0.001491567
0.0002781322
0.0007865674
0.0008524226
0.0001497948
0.0004304328
0.001344287
0.0006191198
0.0003205605
0.0002457968
0.001344287
0.0006191198
0.000358558
0.000230207
0.0007580346
0.0754172
0.04477509
0.01410176
0.008124988
0.0754172
0.04477509
0.01572664
0.04404649
0.02825017
0.005998657
0.01826146
0.01325341
0.006223426
0.007272202
0.005857678
0.003961494
0.002125414
0.001283201
0.002125414
0.001283201
0.0002244232
0.0001264558
0.0005810302
0.0003396321
0.0005852989
0.001506745
0.006199524
0.001290769
0.0008589315
0.0006111918
)


79
(
0.005715871
0.01967446
0.132702
0.04679476
0.149392
0.03303811
0.0004848654
0.0007137102
0.005359769
0.01180301
0.01103298
0.003729617
0.008625188
0.001632137
0.004128598
0.003697215
0.0006652213
0.001793357
0.0002939245
0.0008219781
0.0008529867
0.0001436819
0.0004105262
0.0001018226
0.0002224812
0.0002848664
0.01866075
0.02789039
0.01827246
0.009155377
0.01639532
0.002305537
0.005374822
0.004169673
0.0006918923
0.001815538
0.0002607094
0.0007212223
0.0007200262
0.0001165193
0.0003312423
7.766506e-05
0.0001704446
0.0002151039
0.0009899381
0.0004997565
0.0002739776
0.001344287
0.0006191198
0.0003205605
0.001207905
0.0005750279
0.000356244
0.01826146
0.01325341
0.006223426
0.005998657
0.04404649
0.02825017
0.01572664
0.0754172
0.04477509
0.008124988
0.0754172
0.04477509
0.01410176
0.04404649
0.02825017
0.0116994
0.001290769
0.0008582903
0.001778096
0.001113081
0.001925472
0.007710291
0.002125414
0.001283201
0.001778096
0.001113081
)


79
(
0.001365114
0.004314646
0.004158768
0.01578037
0.03572415
0.1503783
0.0002733062
0.001051568
0.0006143406
0.0009675061
0.001333018
0.003556928
0.004608199
0.001333017
0.003556926
0.001021313
0.002759552
0.00300703
0.0006418026
0.00176905
0.0003658547
0.001028898
0.1307841
0.03555358
0.0155841
0.1307841
0.03555356
0.01548198
0.01148565
0.004519715
0.0009288918
0.001935192
0.0001873445
0.0004821939
0.0004151799
6.162262e-05
0.0001699646
3.369206e-05
7.442052e-05
8.930127e-05
0.0004454133
0.0008264748
0.0003220574
0.00227922
0.0009564574
0.0004616204
0.002473683
0.001006949
0.0005562417
0.004000375
0.004000373
0.003033476
0.00430332
0.009129507
0.009129504
0.01142607
0.02238537
0.02238537
0.01038117
0.04991129
0.04991127
0.0254229
0.07028102
0.07028099
0.03721217
0.0009321408
0.0007009353
0.001614778
0.001937792
0.007307841
0.0007623269
0.0003859379
0.001789982
0.0009742362
0.001604327
0.004074793
0.002343502
0.004764587
0.002634955
)


79
(
0.02798304
0.03293524
0.01583736
0.0187439
0.007118257
0.004301915
0.000760929
0.001370161
0.0003805205
0.001253655
0.02129315
0.02063205
0.01900046
0.1308801
0.04541157
0.02129315
0.02063205
0.009461882
0.002098486
0.004500633
0.000475302
0.001219419
0.001046169
0.0001579586
0.0004334367
8.491996e-05
0.0001874241
0.0002228225
0.001785361
0.004596278
0.006273039
0.002210052
0.005593178
0.001785361
0.004596278
0.004672508
0.001046446
0.00279394
0.0005401828
0.001491567
0.003408617
0.001344287
0.0006191195
0.0004543319
0.003408617
0.001344287
0.0006996031
0.001207904
0.0004164252
0.04477511
0.07541717
0.04477511
0.02732687
0.04477511
0.07541717
0.04514395
0.02825018
0.04404648
0.01692304
0.01325342
0.01826146
0.01325342
0.00585768
0.0072722
0.006921341
0.006713966
0.003695256
0.006713966
0.003695256
0.0009432176
0.0004345015
0.002092919
0.001062037
0.001735498
0.004166541
0.0133815
0.003047169
0.001687987
0.001209844
)


77
(
0.007118257
0.0187439
0.01583736
0.03293524
0.02798304
0.02165618
0.000760929
0.001097589
0.003729619
0.008625191
0.01103298
0.005359767
0.011803
0.003729619
0.008625191
0.00731212
0.001632137
0.004128597
0.0006652211
0.001793357
0.001740723
0.0002939246
0.0008219783
0.0001876653
0.0004105262
0.00915538
0.01639533
0.01827246
0.01866075
0.02789038
0.00915538
0.01639533
0.01038068
0.002305536
0.00537482
0.0006918922
0.001815538
0.001642688
0.0002607094
0.0007212225
0.0001506045
0.0003312423
0.0003999249
0.00214906
0.0009899379
0.003408617
0.001344287
0.0006191195
0.002891179
0.001207904
0.0006687416
0.01325342
0.01826146
0.01325342
0.01692304
0.02825018
0.04404648
0.04514395
0.04477511
0.07541717
0.02732687
0.04477511
0.07541717
0.04477511
0.02825018
0.04404648
0.0319847
0.003047169
0.001976398
0.005019858
0.002945009
0.006793697
0.01977268
0.006713966
0.003695256
0.005019858
0.002945009
)


76
(
0.008621045
0.01314067
0.004423827
0.009349238
0.004149756
0.003513232
0.001289642
0.002282682
0.0006454687
0.00202034
0.001015159
0.002098487
0.004500635
0.00946188
0.02129314
0.02063204
0.1308801
0.04541158
0.01900046
0.02129314
0.02063204
0.002098486
0.004500633
0.003084479
0.0004753022
0.00121942
0.0001973797
0.0004334366
0.0004787157
0.001046446
0.00279394
0.004672508
0.00178536
0.004596276
0.002210053
0.00559318
0.006273039
0.001785361
0.004596277
0.01040923
0.003408616
0.001344286
0.0009303089
0.01040923
0.003408616
0.001533425
0.002891178
0.0008245675
0.01410176
0.04477509
0.0754172
0.06872958
0.01410176
0.04477509
0.05973187
0.01041738
0.02825017
0.03544722
0.006223426
0.01325341
0.01826146
0.003407981
0.005857678
0.008960678
0.02209378
0.01244699
0.02209378
0.01244699
0.007814559
0.002397126
0.009766073
0.004443782
0.005543437
0.01401524
0.02121416
0.00294304
)


69
(
0.004149756
0.009349238
0.004423827
0.01314067
0.008621045
0.009386782
0.001289642
0.001801163
0.001632137
0.004128598
0.007312119
0.003729617
0.008625188
0.005359769
0.01180301
0.01103299
0.003729618
0.00862519
0.001632137
0.004128597
0.002305537
0.005374822
0.01038068
0.009155377
0.01639532
0.01866075
0.02789039
0.01827246
0.009155378
0.01639533
0.002305536
0.00537482
0.004169671
0.0006918924
0.001815538
0.0003294883
0.0007212224
0.0008185499
0.01040923
0.003408616
0.001344286
0.00796487
0.002891178
0.001390686
0.006223426
0.01325341
0.01826146
0.03544722
0.01041738
0.02825017
0.05973187
0.01410176
0.04477509
0.06872958
0.01410176
0.04477509
0.0754172
0.01041738
0.02825017
0.05339619
0.006636899
0.004623919
0.01403512
0.05133195
0.04330825
0.02209378
0.01244699
0.01403512
0.008599879
)


78
(
0.001997446
0.004725448
0.002154247
0.00809463
0.006141807
0.00941769
0.002109655
0.0007265932
0.002694163
0.001625217
0.002410999
2.861916e-32
0.0007850841
0.002131403
0.003810454
0.00147073
0.003815587
0.002396158
0.005835585
0.006954464
0.002505803
0.006013466
0.001193564
0.002616008
0.006022972
0.01634869
0.01346965
0.1269056
0.03899269
0.01878118
0.03620491
0.02976364
0.004662361
0.008367195
0.005000231
0.0008760966
0.002122755
0.0003195882
0.0006937635
0.0007347962
0.0009444565
0.001886661
0.004505963
0.001199426
0.0171562
0.005258175
0.001911945
0.01597046
0.005031235
0.002128312
0.002582611
0.004904834
0.007898087
0.0179165
0.004271637
0.00960401
0.02422846
0.006693927
0.01768642
0.04951535
0.009315424
0.02866591
0.06041136
0.01028382
0.03376317
0.08444768
0.004187629
0.07583306
0.01207744
0.0457477
0.007761311
0.01836931
0.009254915
0.008354389
0.02957645
0.01964417
0.02812337
0.01814177
)


78
(
0.003524948
0.005901778
0.001774492
0.00475545
0.002271901
0.002363897
0.002431801
0.004174678
0.001220331
0.003500789
0.001709605
0.001906983
0.0004753022
0.00121942
0.003084479
0.002098486
0.004500632
0.02129314
0.02063204
0.01900046
0.1308801
0.04541158
0.02129314
0.02063204
0.009461881
0.002098487
0.004500635
0.0005727704
0.001219419
0.00119711
0.000540183
0.001491568
0.002820151
0.001046445
0.002793939
0.001785361
0.004596278
0.0007014308
0.001491567
0.001775815
0.03454079
0.01040923
0.003408615
0.002182191
0.03454079
0.01040923
0.00390351
0.02263501
0.007964869
0.001830604
0.00502357
0.002149059
0.001707355
0.004427224
0.01410175
0.0447751
0.0641983
0.004427224
0.01410175
0.02788135
0.003678845
0.01041738
0.032244
0.002644175
0.006223423
0.01325342
0.001743684
0.003407979
0.007648404
0.03921947
0.03360934
0.03921947
0.03360934
0.07135046
0.04174629
0.02419807
0.01882184
0.0114682
)


83
(
0.0009632756
0.00216243
0.0008186097
0.003240156
0.002149497
0.003461481
0.001408535
0.003440033
0.001573199
0.006240009
0.004777702
0.007599124
2.861916e-32
6.223795e-33
6.583557e-34
0.0003147986
0.0008896787
0.001659773
0.001362429
0.003630665
0.00433371
0.00113199
0.003040378
0.000998306
0.002049972
0.002530403
0.0001255638
0.0003312811
0.0008665848
0.0005436429
0.001205371
0.01010371
0.007008852
0.008794134
0.1180148
0.0283496
0.1348659
0.0382648
0.01343088
0.02850324
0.01912499
0.002480973
0.003779881
0.002457958
0.00400566
0.003100574
0.001939893
0.002282585
0.009160345
0.006454763
0.005703434
0.02249708
0.01395591
0.004186195
0.04989171
0.0269223
0.009163133
0.06892798
0.03411017
0.01172075
0.000899588
0.001602213
0.001310308
0.002682079
0.00640388
0.001824518
0.004384841
0.01882997
0.002321865
0.006496867
0.01931867
0.00256633
0.007772394
0.03805853
0.008490505
0.0113908
0.01287735
0.01619787
0.01089093
0.02178801
0.0263659
0.03126958
0.03765837
)


74
(
0.0008803977
0.003188894
0.001915473
0.002710699
0.002468338
0.005824206
0.002712682
0.009233189
0.006490716
0.008099994
4.560698e-32
9.385054e-34
0.002801532
0.006954928
0.007640206
0.002293096
0.005771387
0.001723854
0.003486318
0.003931262
0.0002611598
0.0007086587
0.001701277
0.0008200092
0.00204584
0.003585191
0.007274474
0.01238352
0.01488788
0.02253498
0.02386857
0.03360253
0.02093929
0.01488789
0.02253499
0.004121515
0.007274475
0.005686622
0.009481139
0.007073715
0.003902408
0.004289289
0.0235658
0.01576763
0.01154489
0.0532152
0.03187852
0.006904576
0.07531678
0.04298559
0.01367464
0.0532152
0.03187852
0.01263412
0.00180697
0.004880105
0.001942414
0.005519348
0.01865829
0.00180697
0.004880105
0.02204022
0.004616769
0.02617686
0.02704806
0.03667388
0.06816184
0.0119454
0.01836956
0.006890142
0.02666088
0.03587828
0.01939545
0.02543497
)


75
(
0.001743161
0.003045843
0.0008732782
0.002633072
0.001306901
0.001539299
0.005355145
0.008641536
0.002712604
0.006602979
0.003060111
0.002910626
0.0001579587
0.0004334367
0.001046168
0.000475302
0.001219419
0.002098487
0.004500634
0.009461882
0.02129315
0.02063204
0.1308801
0.04541157
0.01900046
0.02129315
0.02063205
0.002406925
0.004500633
0.003580685
0.002210052
0.005593178
0.006273039
0.001785361
0.004596278
0.001361785
0.00279394
0.003258742
0.07282883
0.03454078
0.01040922
0.006099126
0.07282883
0.03454078
0.01173382
0.0427546
0.02263501
0.004654075
0.01787669
0.01126082
0.005023568
0.007169954
0.005232865
0.003364036
0.001669115
0.004427222
0.01410176
0.0234857
0.001669115
0.004427222
0.008792511
0.001482682
0.003678844
0.001191258
0.02209379
0.03360934
0.02209379
0.03360934
0.007814563
0.04174627
0.009766076
0.01882184
0.008824405
0.01534093
0.01408405
)


75
(
0.006573876
0.01494494
0.008719172
0.01942305
0.01179543
0.009245634
6.223794e-33
4.560698e-32
0.0001768566
0.0004987282
0.001078949
0.0004036425
0.001101223
0.001049699
0.002697995
0.005425106
0.002844086
0.006663714
0.00584138
0.01266071
0.01394586
0.006806895
0.01452951
0.005417093
0.009686254
0.009355701
0.0001768566
0.0004987282
0.001078949
0.0004036425
0.001101223
0.001049699
0.002697995
0.005425106
0.002844086
0.006663714
0.00584138
0.01266071
0.01394586
0.006806895
0.01452951
0.005417093
0.009686254
0.009355701
0.02238537
0.02238537
0.01324465
0.01459353
0.04991129
0.04991129
0.03714463
0.07028101
0.07028101
0.01901505
0.04991129
0.04991129
0.02542289
0.02238537
0.02238537
0.01515958
0.001819863
0.00443775
0.009091337
0.001819863
0.006352675
0.00536463
0.007880024
0.009576991
0.0158459
0.1103341
0.0400441
0.009576991
0.0158459
0.00536463
0.007880024
)


77
(
0.0009796307
0.001750855
0.0004900424
0.001578553
0.01489984
0.02068397
0.007870368
0.01336847
0.00557207
0.004059968
6.616278e-05
0.0001874241
0.0004211032
0.0001579586
0.0004334365
0.0004753022
0.00121942
0.00308448
0.002098487
0.004500634
0.02129314
0.02063204
0.01900046
0.1308801
0.04541158
0.02276191
0.02063204
0.01165704
0.001046446
0.00279394
0.00178536
0.004596277
0.006273039
0.002210053
0.00559318
0.002390918
0.004596278
0.005494389
0.05570314
0.07282883
0.03454077
0.02018276
0.05570314
0.07282883
0.0361289
0.0340264
0.0427546
0.01313507
0.01517025
0.01787669
0.01126082
0.00642224
0.007169954
0.006145016
0.0007423482
0.001669114
0.004427223
0.007008808
0.0007423482
0.001669114
0.00304197
0.0006848481
0.001482682
0.006713968
0.01244699
0.006713968
0.01244699
0.000943218
0.002397126
0.00209292
0.004443782
0.003132958
0.007674132
0.01878121
0.004623919
0.001687987
0.002289823
)


77
(
0.0002919708
0.001127621
0.0006643399
0.001050587
0.001385066
0.004298403
0.003951317
0.01510748
0.03274587
0.1354709
0.001576262
0.0005231521
0.001453563
0.0008579375
0.00233753
0.003658446
0.001203381
0.00322877
0.001947188
0.003564925
0.005013355
1.854153e-05
5.308671e-05
0.0001161241
4.111429e-05
0.0001147949
0.0001140144
0.0003012269
0.0007861127
0.0004895108
0.001088392
0.00900346
0.006285263
0.007972479
0.1050515
0.02547443
0.1797327
0.03620678
0.02498988
0.00280282
0.003774868
0.003935918
0.007171481
0.005644293
0.008469686
0.01617668
0.01176867
0.02036827
0.02476226
0.02264801
0.04497261
0.0494715
0.031195
0.0643545
0.08340912
0.0003972145
0.0007815148
0.0004412212
0.0009105479
0.002156967
0.0004591828
0.0009669202
0.0034732
0.0007494792
0.0009837925
0.001755
0.00203424
0.007500895
0.0005201476
0.001041651
0.001269477
0.002337687
0.002008862
0.002875838
0.004998435
0.003401654
0.006260893
)


81
(
0.00111991
0.0006314538
0.0009415475
0.003304991
0.01076092
0.02069748
0.03331483
0.1416509
0.04209521
8.166495e-32
0.0001602448
0.0004577332
0.0003152941
0.0008826278
0.001783026
0.0006547203
0.001777766
0.001336355
0.003486317
0.00569688
0.002293096
0.005771386
0.004063162
0.00695493
0.00919642
5.087963e-05
0.0001462978
0.0003112757
0.0001062131
0.0002993744
0.0002611597
0.0007086586
0.001701277
0.0008200094
0.00204584
0.003585189
0.007274471
0.01238352
0.01488788
0.02253498
0.03332343
0.03360254
0.03097683
0.005399774
0.008578342
0.009481136
0.01836476
0.01088462
0.02055917
0.03998254
0.01971526
0.04483044
0.05070466
0.02523475
0.06253919
0.07531675
0.01971526
0.04483044
0.06380139
0.00110455
0.0004044262
0.0008253745
0.001942414
0.0003916504
0.0007879445
0.002593741
0.001120101
0.001614778
0.001714588
0.002723161
0.003735494
0.01227318
0.0001750194
0.0004053138
0.0004274332
0.0008839664
0.0007164696
0.002634955
0.004764587
0.002343502
0.004074793
)


80
(
0.0006024311
0.001091134
0.0003012037
0.001010296
0.05729092
0.04852127
0.0382282
0.0235655
0.007841639
0.003842828
3.229098e-05
9.30831e-05
0.0001969245
6.616274e-05
0.000187424
0.0001579586
0.0004334366
0.001046169
0.0004753021
0.001219419
0.002098486
0.004500632
0.00946188
0.02129314
0.02063204
0.1480213
0.04541158
0.03033713
0.0002781322
0.0007865675
0.001554361
0.0005401829
0.001491567
0.001046445
0.002793939
0.004672508
0.001785361
0.004596278
0.003196062
0.00559318
0.007487395
0.01916096
0.05570314
0.07282881
0.05858953
0.01916096
0.05570314
0.06198278
0.01361974
0.0340264
0.03136789
0.007671091
0.01517025
0.01787668
0.003977812
0.00642224
0.008720795
0.0003744173
0.0007423478
0.001669114
0.002450862
0.0003744173
0.0007423478
0.001244382
0.000353351
0.0006848477
0.002125414
0.003695256
0.002125414
0.003695256
0.0002244232
0.0004345015
0.0005810302
0.001062037
0.0009867217
0.002425028
0.009086282
0.001976398
0.0008589315
0.001209844
)


82
(
0.0004564366
0.000855228
0.1035972
0.03348334
0.2019375
0.0371092
0.02689517
0.007465353
5.852051e-34
8.342272e-34
7.259107e-32
4.044884e-05
0.0001174039
0.0002381197
7.580255e-05
0.0002173241
0.0001575581
0.0004426541
0.0009751138
0.0003740953
0.001014094
0.001041471
0.002639577
0.00558316
0.003394061
0.007486705
0.066935
0.02089632
0.02928333
5.70878e-05
0.0001661428
0.0003288498
0.0001020752
0.0002938875
0.0001988261
0.000562509
0.001184091
0.0004307883
0.001181966
0.001047605
0.002716924
0.005261478
0.002626759
0.006224177