/*--------------------------------*- C++ -*----------------------------------*\
| =========                 |                                                 |
| \\      /  F ield         | OpenFOAM: The Open Source CFD Toolbox           |
|  \\    /   O peration     | Version:  v2012                                 |
|   \\  /    A nd           | Website:  www.openfoam.com                      |
|    \\/     M anipulation  |                                                 |
\*---------------------------------------------------------------------------*/
FoamFile
{
    version     2.0;
    format      ascii;
    class       featureEdgeMesh;
    location    "constant/triSurface";
    object      geom.eMesh;
}
// * * * * * * * * * * * * * * * * * * * * * * * * * * * * * * * * * * * * * //


// points:

230
(
(-0.0133333 0.008 -0.05)
(0.0133333 0.008 -0.05)
(-0.0133333 0.008 0.05)
(0.0133333 0.008 0.05)
(0.1 0.008 -0.05)
(0.1 0.008 0.05)
(-0.1 0.008 -0.05)
(-0.1 0.008 0.05)
(0.0133333 0 -0.05)
(0.0133333 0 -0.01)
(0.0133333 0 0.01)
(0.0133333 0 0.05)
(-0.0133333 0 -0.05)
(-0.0133333 0 -0.01)
(-0.0133333 0 0.01)
(-0.0133333 0 0.05)
(0.1 0 -0.05)
(0.1 0 0.05)
(-0.1 0 -0.05)
(-0.1 0 0.05)
(-0.0133333 -0.04 -0.01)
(0.0133333 -0.04 -0.01)
(-0.0133333 -0.04 0.01)
(0.0133333 -0.04 0.01)
(-0.0133333 0.008 -0.04)
(0.0133333 0.008 -0.04)
(-0.0133333 0.008 -0.03)
(0.0133333 0.008 -0.03)
(-0.0133333 0.008 -0.02)
(0.0133333 0.008 -0.02)
(-0.0133333 0.008 -0.01)
(0.0133333 0.008 -0.01)
(-0.0133333 0.008 0)
(0.0133333 0.008 0)
(-0.0133333 0.008 0.01)
(0.0133333 0.008 0.01)
(-0.0133333 0.008 0.02)
(0.0133333 0.008 0.02)
(-0.0133333 0.008 0.03)
(0.0133333 0.008 0.03)
(-0.0133333 0.008 0.04)
(0.0133333 0.008 0.04)
(0.0133333 0 -0.04)
(0.0133333 0 -0.03)
(0.0133333 0 -0.02)
(0.0133333 0 0)
(0.0133333 0 0.02)
(0.0133333 0 0.03)
(0.0133333 0 0.04)
(-0.0133333 0 -0.04)
(-0.0133333 0 -0.03)
(-0.0133333 0 -0.02)
(-0.0133333 0 0)
(-0.0133333 0 0.02)
(-0.0133333 0 0.03)
(-0.0133333 0 0.04)
(-0.00666667 0.008 -0.05)
(0 0.008 -0.05)
(0.00666667 0.008 -0.05)
(-0.00666667 0.008 0.05)
(0 0.008 0.05)
(0.00666667 0.008 0.05)
(0.02 0.008 -0.05)
(0.0266667 0.008 -0.05)
(0.0333333 0.008 -0.05)
(0.04 0.008 -0.05)
(0.0466667 0.008 -0.05)
(0.0533333 0.008 -0.05)
(0.06 0.008 -0.05)
(0.0666667 0.008 -0.05)
(0.0733333 0.008 -0.05)
(0.08 0.008 -0.05)
(0.0866667 0.008 -0.05)
(0.0933333 0.008 -0.05)
(0.1 0.008 -0.04)
(0.1 0.008 -0.03)
(0.1 0.008 -0.02)
(0.1 0.008 -0.01)
(0.1 0.008 0)
(0.1 0.008 0.01)
(0.1 0.008 0.02)
(0.1 0.008 0.03)
(0.1 0.008 0.04)
(0.02 0.008 0.05)
(0.0266667 0.008 0.05)
(0.0333333 0.008 0.05)
(0.04 0.008 0.05)
(0.0466667 0.008 0.05)
(0.0533333 0.008 0.05)
(0.06 0.008 0.05)
(0.0666667 0.008 0.05)
(0.0733333 0.008 0.05)
(0.08 0.008 0.05)
(0.0866667 0.008 0.05)
(0.0933333 0.008 0.05)
(-0.1 0.008 -0.04)
(-0.0933333 0.008 -0.05)
(-0.0866667 0.008 -0.05)
(-0.08 0.008 -0.05)
(-0.0733333 0.008 -0.05)
(-0.0666667 0.008 -0.05)
(-0.06 0.008 -0.05)
(-0.0533333 0.008 -0.05)
(-0.0466667 0.008 -0.05)
(-0.04 0.008 -0.05)
(-0.0333333 0.008 -0.05)
(-0.0266667 0.008 -0.05)
(-0.02 0.008 -0.05)
(-0.1 0.008 -0.03)
(-0.1 0.008 -0.02)
(-0.1 0.008 -0.01)
(-0.1 0.008 0)
(-0.1 0.008 0.01)
(-0.1 0.008 0.02)
(-0.1 0.008 0.03)
(-0.1 0.008 0.04)
(-0.0933333 0.008 0.05)
(-0.0866667 0.008 0.05)
(-0.08 0.008 0.05)
(-0.0733333 0.008 0.05)
(-0.0666667 0.008 0.05)
(-0.06 0.008 0.05)
(-0.0533333 0.008 0.05)
(-0.0466667 0.008 0.05)
(-0.04 0.008 0.05)
(-0.0333333 0.008 0.05)
(-0.0266667 0.008 0.05)
(-0.02 0.008 0.05)
(0.02 0 -0.05)
(0.0266667 0 -0.05)
(0.0333333 0 -0.05)
(0.04 -2.89121e-19 -0.05)
(0.0466667 2.89121e-19 -0.05)
(0.0533333 0 -0.05)
(0.06 -2.89121e-19 -0.05)
(0.0666667 -4.33681e-19 -0.05)
(0.0733333 -5.78241e-19 -0.05)
(0.08 4.33681e-19 -0.05)
(0.0866667 2.89121e-19 -0.05)
(0.0933333 1.4456e-19 -0.05)
(0.1 0 -0.04)
(0.1 0 -0.03)
(0.1 0 -0.02)
(0.1 0 -0.01)
(0.1 0 0)
(0.1 0 0.01)
(0.1 0 0.02)
(0.1 0 0.03)
(0.1 0 0.04)
(0.02 0 0.05)
(0.0266667 0 0.05)
(0.0333333 0 0.05)
(0.04 -2.89121e-19 0.05)
(0.0466667 2.89121e-19 0.05)
(0.0533333 0 0.05)
(0.06 -2.89121e-19 0.05)
(0.0666667 -4.33681e-19 0.05)
(0.0733333 -5.78241e-19 0.05)
(0.08 4.33681e-19 0.05)
(0.0866667 2.89121e-19 0.05)
(0.0933333 1.4456e-19 0.05)
(-0.1 0 -0.04)
(-0.0933333 0 -0.05)
(-0.0866667 0 -0.05)
(-0.08 0 -0.05)
(-0.0733333 0 -0.05)
(-0.0666667 0 -0.05)
(-0.06 0 -0.05)
(-0.0533333 -5.78241e-19 -0.05)
(-0.0466667 0 -0.05)
(-0.04 5.78241e-19 -0.05)
(-0.0333333 -5.78241e-19 -0.05)
(-0.0266667 0 -0.05)
(-0.02 0 -0.05)
(-0.1 0 -0.03)
(-0.1 0 -0.02)
(-0.1 0 -0.01)
(-0.1 0 0)
(-0.1 0 0.01)
(-0.1 0 0.02)
(-0.1 0 0.03)
(-0.1 0 0.04)
(-0.0933333 0 0.05)
(-0.0866667 0 0.05)
(-0.08 0 0.05)
(-0.0733333 0 0.05)
(-0.0666667 0 0.05)
(-0.06 0 0.05)
(-0.0533333 -5.78241e-19 0.05)
(-0.0466667 0 0.05)
(-0.04 5.78241e-19 0.05)
(-0.0333333 -5.78241e-19 0.05)
(-0.0266667 0 0.05)
(-0.02 0 0.05)
(-0.00666667 0 -0.05)
(0 0 -0.05)
(0.00666667 0 -0.05)
(-0.00666667 -0.04 -0.01)
(0 -0.04 -0.01)
(0.00666667 -0.04 -0.01)
(-0.0133333 -0.04 0)
(0.0133333 -0.04 0)
(-0.00666667 -0.04 0.01)
(0 -0.04 0.01)
(0.00666667 -0.04 0.01)
(-0.00666667 0 0.05)
(0 0 0.05)
(0.00666667 0 0.05)
(-0.00666667 0 -0.01)
(0 0 -0.01)
(0.00666667 0 -0.01)
(-0.00666667 0 0.01)
(0 0 0.01)
(0.00666667 0 0.01)
(-0.0133333 -0.032 -0.01)
(0.0133333 -0.032 -0.01)
(-0.0133333 -0.024 -0.01)
(0.0133333 -0.024 -0.01)
(-0.0133333 -0.016 -0.01)
(0.0133333 -0.016 -0.01)
(-0.0133333 -0.008 -0.01)
(0.0133333 -0.008 -0.01)
(-0.0133333 -0.032 0.01)
(0.0133333 -0.032 0.01)
(-0.0133333 -0.024 0.01)
(0.0133333 -0.024 0.01)
(-0.0133333 -0.016 0.01)
(0.0133333 -0.016 0.01)
(-0.0133333 -0.008 0.01)
(0.0133333 -0.008 0.01)
)


// edges:

244
(
(13 208)
(208 209)
(209 210)
(210 9)
(14 211)
(211 212)
(212 213)
(213 10)
(214 20)
(21 215)
(216 214)
(215 217)
(218 216)
(217 219)
(220 218)
(219 221)
(13 220)
(221 9)
(222 22)
(23 223)
(224 222)
(223 225)
(226 224)
(225 227)
(228 226)
(227 229)
(14 228)
(229 10)
(0 56)
(56 57)
(57 58)
(58 1)
(59 2)
(60 59)
(61 60)
(3 61)
(62 1)
(63 62)
(64 63)
(65 64)
(66 65)
(67 66)
(68 67)
(69 68)
(70 69)
(71 70)
(72 71)
(73 72)
(74 4)
(4 73)
(75 74)
(76 75)
(77 76)
(78 77)
(79 78)
(80 79)
(81 80)
(82 81)
(3 83)
(83 84)
(84 85)
(85 86)
(86 87)
(87 88)
(88 89)
(89 90)
(90 91)
(91 92)
(92 93)
(93 94)
(94 5)
(5 82)
(6 95)
(96 6)
(97 96)
(98 97)
(99 98)
(100 99)
(101 100)
(102 101)
(103 102)
(104 103)
(105 104)
(106 105)
(107 106)
(0 107)
(95 108)
(108 109)
(109 110)
(110 111)
(111 112)
(112 113)
(113 114)
(114 115)
(115 7)
(7 116)
(116 117)
(117 118)
(118 119)
(119 120)
(120 121)
(121 122)
(122 123)
(123 124)
(124 125)
(125 126)
(126 127)
(127 2)
(8 1)
(3 11)
(0 12)
(15 2)
(128 8)
(129 128)
(130 129)
(131 130)
(132 131)
(133 132)
(134 133)
(135 134)
(136 135)
(137 136)
(138 137)
(139 138)
(140 16)
(16 139)
(141 140)
(142 141)
(143 142)
(144 143)
(145 144)
(146 145)
(147 146)
(148 147)
(11 149)
(149 150)
(150 151)
(151 152)
(152 153)
(153 154)
(154 155)
(155 156)
(156 157)
(157 158)
(158 159)
(159 160)
(160 17)
(17 148)
(18 161)
(162 18)
(163 162)
(164 163)
(165 164)
(166 165)
(167 166)
(168 167)
(169 168)
(170 169)
(171 170)
(172 171)
(173 172)
(12 173)
(161 174)
(174 175)
(175 176)
(176 177)
(177 178)
(178 179)
(179 180)
(180 181)
(181 19)
(19 182)
(182 183)
(183 184)
(184 185)
(185 186)
(186 187)
(187 188)
(188 189)
(189 190)
(190 191)
(191 192)
(192 193)
(193 15)
(194 12)
(195 194)
(196 195)
(8 196)
(20 197)
(197 198)
(198 199)
(199 21)
(200 20)
(21 201)
(22 200)
(202 22)
(203 202)
(204 203)
(201 23)
(23 204)
(15 205)
(205 206)
(206 207)
(207 11)
(24 0)
(1 25)
(26 24)
(25 27)
(28 26)
(27 29)
(30 28)
(29 31)
(32 30)
(31 33)
(34 32)
(33 35)
(36 34)
(35 37)
(38 36)
(37 39)
(40 38)
(39 41)
(2 40)
(41 3)
(42 8)
(43 42)
(44 43)
(9 44)
(45 9)
(10 45)
(46 10)
(47 46)
(48 47)
(11 48)
(12 49)
(49 50)
(50 51)
(51 13)
(13 52)
(52 14)
(14 53)
(53 54)
(54 55)
(55 15)
)

// * * * * * * * * * * * * * * * * * * * * * * * * * * * * * * * * * * * * * //


// ************************************************************************* //
