/*--------------------------------*- C++ -*----------------------------------*\
| =========                 |                                                 |
| \\      /  F ield         | OpenFOAM: The Open Source CFD Toolbox           |
|  \\    /   O peration     | Version:  v2012                                 |
|   \\  /    A nd           | Website:  www.openfoam.com                      |
|    \\/     M anipulation  |                                                 |
\*---------------------------------------------------------------------------*/
FoamFile
{
    version     2.0;
    format      ascii;
    class       extendedFeatureEdgeMesh;
    location    "constant/extendedFeatureEdgeMesh";
    object      geom.extendedFeatureEdgeMesh;
}
// * * * * * * * * * * * * * * * * * * * * * * * * * * * * * * * * * * * * * //

// points

230
(
(-0.0133333 0.008 -0.05)
(0.0133333 0.008 -0.05)
(-0.0133333 0.008 0.05)
(0.0133333 0.008 0.05)
(0.1 0.008 -0.05)
(0.1 0.008 0.05)
(-0.1 0.008 -0.05)
(-0.1 0.008 0.05)
(0.0133333 0 -0.05)
(0.0133333 0 -0.01)
(0.0133333 0 0.01)
(0.0133333 0 0.05)
(-0.0133333 0 -0.05)
(-0.0133333 0 -0.01)
(-0.0133333 0 0.01)
(-0.0133333 0 0.05)
(0.1 0 -0.05)
(0.1 0 0.05)
(-0.1 0 -0.05)
(-0.1 0 0.05)
(-0.0133333 -0.04 -0.01)
(0.0133333 -0.04 -0.01)
(-0.0133333 -0.04 0.01)
(0.0133333 -0.04 0.01)
(-0.0133333 0.008 -0.04)
(0.0133333 0.008 -0.04)
(-0.0133333 0.008 -0.03)
(0.0133333 0.008 -0.03)
(-0.0133333 0.008 -0.02)
(0.0133333 0.008 -0.02)
(-0.0133333 0.008 -0.01)
(0.0133333 0.008 -0.01)
(-0.0133333 0.008 0)
(0.0133333 0.008 0)
(-0.0133333 0.008 0.01)
(0.0133333 0.008 0.01)
(-0.0133333 0.008 0.02)
(0.0133333 0.008 0.02)
(-0.0133333 0.008 0.03)
(0.0133333 0.008 0.03)
(-0.0133333 0.008 0.04)
(0.0133333 0.008 0.04)
(0.0133333 0 -0.04)
(0.0133333 0 -0.03)
(0.0133333 0 -0.02)
(0.0133333 0 0)
(0.0133333 0 0.02)
(0.0133333 0 0.03)
(0.0133333 0 0.04)
(-0.0133333 0 -0.04)
(-0.0133333 0 -0.03)
(-0.0133333 0 -0.02)
(-0.0133333 0 0)
(-0.0133333 0 0.02)
(-0.0133333 0 0.03)
(-0.0133333 0 0.04)
(-0.00666667 0.008 -0.05)
(0 0.008 -0.05)
(0.00666667 0.008 -0.05)
(-0.00666667 0.008 0.05)
(0 0.008 0.05)
(0.00666667 0.008 0.05)
(0.02 0.008 -0.05)
(0.0266667 0.008 -0.05)
(0.0333333 0.008 -0.05)
(0.04 0.008 -0.05)
(0.0466667 0.008 -0.05)
(0.0533333 0.008 -0.05)
(0.06 0.008 -0.05)
(0.0666667 0.008 -0.05)
(0.0733333 0.008 -0.05)
(0.08 0.008 -0.05)
(0.0866667 0.008 -0.05)
(0.0933333 0.008 -0.05)
(0.1 0.008 -0.04)
(0.1 0.008 -0.03)
(0.1 0.008 -0.02)
(0.1 0.008 -0.01)
(0.1 0.008 0)
(0.1 0.008 0.01)
(0.1 0.008 0.02)
(0.1 0.008 0.03)
(0.1 0.008 0.04)
(0.02 0.008 0.05)
(0.0266667 0.008 0.05)
(0.0333333 0.008 0.05)
(0.04 0.008 0.05)
(0.0466667 0.008 0.05)
(0.0533333 0.008 0.05)
(0.06 0.008 0.05)
(0.0666667 0.008 0.05)
(0.0733333 0.008 0.05)
(0.08 0.008 0.05)
(0.0866667 0.008 0.05)
(0.0933333 0.008 0.05)
(-0.1 0.008 -0.04)
(-0.0933333 0.008 -0.05)
(-0.0866667 0.008 -0.05)
(-0.08 0.008 -0.05)
(-0.0733333 0.008 -0.05)
(-0.0666667 0.008 -0.05)
(-0.06 0.008 -0.05)
(-0.0533333 0.008 -0.05)
(-0.0466667 0.008 -0.05)
(-0.04 0.008 -0.05)
(-0.0333333 0.008 -0.05)
(-0.0266667 0.008 -0.05)
(-0.02 0.008 -0.05)
(-0.1 0.008 -0.03)
(-0.1 0.008 -0.02)
(-0.1 0.008 -0.01)
(-0.1 0.008 0)
(-0.1 0.008 0.01)
(-0.1 0.008 0.02)
(-0.1 0.008 0.03)
(-0.1 0.008 0.04)
(-0.0933333 0.008 0.05)
(-0.0866667 0.008 0.05)
(-0.08 0.008 0.05)
(-0.0733333 0.008 0.05)
(-0.0666667 0.008 0.05)
(-0.06 0.008 0.05)
(-0.0533333 0.008 0.05)
(-0.0466667 0.008 0.05)
(-0.04 0.008 0.05)
(-0.0333333 0.008 0.05)
(-0.0266667 0.008 0.05)
(-0.02 0.008 0.05)
(0.02 0 -0.05)
(0.0266667 0 -0.05)
(0.0333333 0 -0.05)
(0.04 -2.89121e-19 -0.05)
(0.0466667 2.89121e-19 -0.05)
(0.0533333 0 -0.05)
(0.06 -2.89121e-19 -0.05)
(0.0666667 -4.33681e-19 -0.05)
(0.0733333 -5.78241e-19 -0.05)
(0.08 4.33681e-19 -0.05)
(0.0866667 2.89121e-19 -0.05)
(0.0933333 1.4456e-19 -0.05)
(0.1 0 -0.04)
(0.1 0 -0.03)
(0.1 0 -0.02)
(0.1 0 -0.01)
(0.1 0 0)
(0.1 0 0.01)
(0.1 0 0.02)
(0.1 0 0.03)
(0.1 0 0.04)
(0.02 0 0.05)
(0.0266667 0 0.05)
(0.0333333 0 0.05)
(0.04 -2.89121e-19 0.05)
(0.0466667 2.89121e-19 0.05)
(0.0533333 0 0.05)
(0.06 -2.89121e-19 0.05)
(0.0666667 -4.33681e-19 0.05)
(0.0733333 -5.78241e-19 0.05)
(0.08 4.33681e-19 0.05)
(0.0866667 2.89121e-19 0.05)
(0.0933333 1.4456e-19 0.05)
(-0.1 0 -0.04)
(-0.0933333 0 -0.05)
(-0.0866667 0 -0.05)
(-0.08 0 -0.05)
(-0.0733333 0 -0.05)
(-0.0666667 0 -0.05)
(-0.06 0 -0.05)
(-0.0533333 -5.78241e-19 -0.05)
(-0.0466667 0 -0.05)
(-0.04 5.78241e-19 -0.05)
(-0.0333333 -5.78241e-19 -0.05)
(-0.0266667 0 -0.05)
(-0.02 0 -0.05)
(-0.1 0 -0.03)
(-0.1 0 -0.02)
(-0.1 0 -0.01)
(-0.1 0 0)
(-0.1 0 0.01)
(-0.1 0 0.02)
(-0.1 0 0.03)
(-0.1 0 0.04)
(-0.0933333 0 0.05)
(-0.0866667 0 0.05)
(-0.08 0 0.05)
(-0.0733333 0 0.05)
(-0.0666667 0 0.05)
(-0.06 0 0.05)
(-0.0533333 -5.78241e-19 0.05)
(-0.0466667 0 0.05)
(-0.04 5.78241e-19 0.05)
(-0.0333333 -5.78241e-19 0.05)
(-0.0266667 0 0.05)
(-0.02 0 0.05)
(-0.00666667 0 -0.05)
(0 0 -0.05)
(0.00666667 0 -0.05)
(-0.00666667 -0.04 -0.01)
(0 -0.04 -0.01)
(0.00666667 -0.04 -0.01)
(-0.0133333 -0.04 0)
(0.0133333 -0.04 0)
(-0.00666667 -0.04 0.01)
(0 -0.04 0.01)
(0.00666667 -0.04 0.01)
(-0.00666667 0 0.05)
(0 0 0.05)
(0.00666667 0 0.05)
(-0.00666667 0 -0.01)
(0 0 -0.01)
(0.00666667 0 -0.01)
(-0.00666667 0 0.01)
(0 0 0.01)
(0.00666667 0 0.01)
(-0.0133333 -0.032 -0.01)
(0.0133333 -0.032 -0.01)
(-0.0133333 -0.024 -0.01)
(0.0133333 -0.024 -0.01)
(-0.0133333 -0.016 -0.01)
(0.0133333 -0.016 -0.01)
(-0.0133333 -0.008 -0.01)
(0.0133333 -0.008 -0.01)
(-0.0133333 -0.032 0.01)
(0.0133333 -0.032 0.01)
(-0.0133333 -0.024 0.01)
(0.0133333 -0.024 0.01)
(-0.0133333 -0.016 0.01)
(0.0133333 -0.016 0.01)
(-0.0133333 -0.008 0.01)
(0.0133333 -0.008 0.01)
)

// edges

244
(
(13 208)
(208 209)
(209 210)
(210 9)
(14 211)
(211 212)
(212 213)
(213 10)
(214 20)
(21 215)
(216 214)
(215 217)
(218 216)
(217 219)
(220 218)
(219 221)
(13 220)
(221 9)
(222 22)
(23 223)
(224 222)
(223 225)
(226 224)
(225 227)
(228 226)
(227 229)
(14 228)
(229 10)
(0 56)
(56 57)
(57 58)
(58 1)
(59 2)
(60 59)
(61 60)
(3 61)
(62 1)
(63 62)
(64 63)
(65 64)
(66 65)
(67 66)
(68 67)
(69 68)
(70 69)
(71 70)
(72 71)
(73 72)
(74 4)
(4 73)
(75 74)
(76 75)
(77 76)
(78 77)
(79 78)
(80 79)
(81 80)
(82 81)
(3 83)
(83 84)
(84 85)
(85 86)
(86 87)
(87 88)
(88 89)
(89 90)
(90 91)
(91 92)
(92 93)
(93 94)
(94 5)
(5 82)
(6 95)
(96 6)
(97 96)
(98 97)
(99 98)
(100 99)
(101 100)
(102 101)
(103 102)
(104 103)
(105 104)
(106 105)
(107 106)
(0 107)
(95 108)
(108 109)
(109 110)
(110 111)
(111 112)
(112 113)
(113 114)
(114 115)
(115 7)
(7 116)
(116 117)
(117 118)
(118 119)
(119 120)
(120 121)
(121 122)
(122 123)
(123 124)
(124 125)
(125 126)
(126 127)
(127 2)
(8 1)
(3 11)
(0 12)
(15 2)
(128 8)
(129 128)
(130 129)
(131 130)
(132 131)
(133 132)
(134 133)
(135 134)
(136 135)
(137 136)
(138 137)
(139 138)
(140 16)
(16 139)
(141 140)
(142 141)
(143 142)
(144 143)
(145 144)
(146 145)
(147 146)
(148 147)
(11 149)
(149 150)
(150 151)
(151 152)
(152 153)
(153 154)
(154 155)
(155 156)
(156 157)
(157 158)
(158 159)
(159 160)
(160 17)
(17 148)
(18 161)
(162 18)
(163 162)
(164 163)
(165 164)
(166 165)
(167 166)
(168 167)
(169 168)
(170 169)
(171 170)
(172 171)
(173 172)
(12 173)
(161 174)
(174 175)
(175 176)
(176 177)
(177 178)
(178 179)
(179 180)
(180 181)
(181 19)
(19 182)
(182 183)
(183 184)
(184 185)
(185 186)
(186 187)
(187 188)
(188 189)
(189 190)
(190 191)
(191 192)
(192 193)
(193 15)
(194 12)
(195 194)
(196 195)
(8 196)
(20 197)
(197 198)
(198 199)
(199 21)
(200 20)
(21 201)
(22 200)
(202 22)
(203 202)
(204 203)
(201 23)
(23 204)
(15 205)
(205 206)
(206 207)
(207 11)
(24 0)
(1 25)
(26 24)
(25 27)
(28 26)
(27 29)
(30 28)
(29 31)
(32 30)
(31 33)
(34 32)
(33 35)
(36 34)
(35 37)
(38 36)
(37 39)
(40 38)
(39 41)
(2 40)
(41 3)
(42 8)
(43 42)
(44 43)
(9 44)
(45 9)
(10 45)
(46 10)
(47 46)
(48 47)
(11 48)
(12 49)
(49 50)
(50 51)
(51 13)
(13 52)
(52 14)
(14 53)
(53 54)
(54 55)
(55 15)
)

// concaveStart mixedStart nonFeatureStart
0 0 24
// internalStart flatStart openStart multipleStart
8 28 28 204
// normals

328
(
(-0 -1 0)
(-1 0 -0)
(0 1 0)
(0 -1 0)
(1 0 0)
(0 1 0)
(-0 -1 0)
(-1 0 -0)
(0 1 0)
(0 -1 0)
(1 0 0)
(0 1 0)
(-0 -1 0)
(-1 0 -0)
(0 1 0)
(0 -1 0)
(1 0 0)
(0 1 0)
(-0 -1 0)
(-1 0 -0)
(0 1 0)
(0 -1 0)
(1 0 0)
(0 1 0)
(-0 -1 0)
(-1 0 -0)
(0 1 0)
(0 -1 0)
(1 0 0)
(0 1 0)
(-0 -1 0)
(-1 0 -0)
(0 1 0)
(0 -1 0)
(1 0 0)
(0 1 0)
(-0 -1 0)
(-1 0 -0)
(0 1 0)
(0 -1 0)
(1 0 0)
(0 1 0)
(-0 -1 0)
(-1 0 -0)
(0 1 0)
(0 -1 0)
(1 0 0)
(0 1 0)
(-0 -1 0)
(-1 0 -0)
(0 1 0)
(0 -1 0)
(1 0 0)
(0 1 0)
(-0 -1 0)
(-1 0 -0)
(0 1 0)
(0 -1 0)
(1 0 0)
(0 1 0)
(1 0 0)
(8.673573e-17 1 -0)
(0 1 0)
(1 0 0)
(8.673573e-17 1 -0)
(0 1 0)
(1 0 0)
(0 1 0)
(0 1 0)
(1 0 0)
(0 1 0)
(0 1 0)
(1 0 0)
(0 1 0)
(-1 0 -0)
(1 0 0)
(0 1 0)
(-1 0 -0)
(1 0 0)
(0 1 0)
(0 1 0)
(1 0 0)
(0 1 0)
(0 1 0)
(1 0 0)
(0 1 0)
(0 1 0)
(1 0 0)
(0 1 0)
(0 1 0)
(-1 0 0)
(0 1 0)
(0 1 0)
(-1 0 0)
(-8.673573e-17 1 0)
(0 1 0)
(-1 0 0)
(-8.673573e-17 1 0)
(0 1 0)
(-1 0 0)
(0 1 0)
(0 1 0)
(-1 0 0)
(0 1 0)
(1 0 0)
(-1 0 0)
(0 1 0)
(1 0 0)
(-1 0 0)
(0 1 0)
(0 1 0)
(-1 0 0)
(0 1 0)
(0 1 0)
(-1 0 0)
(0 1 0)
(0 1 0)
(-1 0 0)
(0 1 0)
(0 1 0)
(0 -1 0)
(0 -1 0)
(0 -1 0)
(-0 -1 0)
(-0 -1 0)
(-0 -1 0)
(0 1 0)
(0 1 0)
(0 1 0)
(0 1 0)
(0 1 0)
(0 1 0)
(0 1 0)
(0 1 0)
(0 1 0)
(0 1 0)
(0 1 0)
(0 1 0)
(0 1 0)
(0 1 0)
(0 1 0)
(0 1 0)
(0 1 0)
(0 1 0)
(0 1 0)
(0 1 0)
(0 1 0)
(0 1 0)
(0 1 0)
(0 1 0)
(0 1 0)
(0 1 0)
(0 1 0)
(0 1 0)
(0 1 0)
(0 1 0)
(0 1 0)
(0 1 0)
(0 1 0)
(0 1 0)
(0 1 0)
(0 1 0)
(0 1 0)
(0 1 0)
(0 1 0)
(0 1 0)
(0 1 0)
(0 1 0)
(0 1 0)
(0 1 0)
(0 1 0)
(0 1 0)
(0 1 0)
(0 1 0)
(0 1 0)
(0 1 0)
(0 1 0)
(0 1 0)
(0 1 0)
(0 1 0)
(0 1 0)
(0 1 0)
(0 1 0)
(0 1 0)
(0 1 0)
(0 1 0)
(0 1 0)
(0 1 0)
(0 1 0)
(0 1 0)
(0 1 0)
(0 1 0)
(0 1 0)
(0 1 0)
(0 1 5.782409e-17)
(0 1 0)
(0 1 0)
(4.336795e-17 1 -2.89121e-17)
(-8.673585e-17 1 0)
(4.336858e-17 1 0)
(4.336795e-17 1 0)
(2.168389e-17 1 0)
(2.168421e-17 1 0)
(-1.517876e-16 1 0)
(2.168388e-17 1 0)
(2.168439e-17 1 0)
(2.168387e-17 1 0)
(2.168387e-17 1 0)
(2.168387e-17 1 0)
(2.168387e-17 1 0)
(2.168387e-17 1 0)
(2.168387e-17 1 0)
(2.168387e-17 1 0)
(2.168387e-17 1 0)
(2.168387e-17 1 0)
(0 1 0)
(0 1 0)
(4.336795e-17 1 -0)
(-8.673585e-17 1 0)
(4.336858e-17 1 -8.673619e-17)
(4.336795e-17 1 -0)
(2.168389e-17 1 -0)
(2.168421e-17 1 1.4456e-17)
(-1.517876e-16 1 0)
(2.168388e-17 1 -0)
(2.168439e-17 1 -0)
(2.168387e-17 1 -0)
(2.168387e-17 1 0)
(0 1 0)
(0 1 0)
(0 1 0)
(0 1 0)
(0 1 0)
(0 1 0)
(0 1 0)
(8.673575e-17 1 0)
(-8.673701e-17 1 0)
(-8.67357e-17 1 5.782409e-17)
(1.734715e-16 1 0)
(-8.673701e-17 1 0)
(0 1 5.782409e-17)
(0 1 0)
(0 1 0)
(0 1 0)
(0 1 0)
(0 1 0)
(0 1 0)
(0 1 0)
(0 1 0)
(0 1 0)
(0 1 0)
(0 1 0)
(0 1 0)
(0 1 0)
(0 1 0)
(8.673575e-17 1 -0)
(-8.673701e-17 1 0)
(-8.67357e-17 1 0)
(1.734715e-16 1 -0)
(-8.673701e-17 1 0)
(0 1 5.782409e-17)
(0 1 0)
(0 1 0)
(0 1 0)
(0 1 0)
(0 0 1)
(0 0 1)
(0 0 1)
(0 0 1)
(1 0 0)
(-1 0 0)
(1 0 0)
(0 -0 -1)
(0 -0 -1)
(0 -0 -1)
(-1 -0 0)
(0 -0 -1)
(0 1 0)
(0 1 0)
(0 1 0)
(0 0 1)
(0 1 0)
(0 0 1)
(0 1 0)
(0 0 1)
(0 1 0)
(0 0 1)
(0 0 -1)
(0 1 0)
(0 0 -1)
(0 1 0)
(0 0 -1)
(0 1 0)
(0 0 -1)
(0 0 1)
(1 0 0)
(-1 0 -0)
(0 0 1)
(1 0 0)
(0 0 1)
(-1 0 -0)
(0 0 1)
(1 0 0)
(0 0 1)
(-1 0 -0)
(0 0 1)
(1 0 0)
(0 0 1)
(-1 0 -0)
(0 0 1)
(1 0 -0)
(0 0 -1)
(-1 0 0)
(1 0 0)
(0 0 -1)
(-1 0 0)
(0 -0 -1)
(1 0 0)
(0 0 -1)
(-1 0 0)
(0 -0 -1)
(1 0 -0)
(0 0 -1)
(-1 0 0)
(0 -0 -1)
(1 0 0)
(-1 0 0)
(0 -0 -1)
)

// normal volume types

328
(
0
0
0
0
0
0
0
0
0
0
0
0
0
0
0
0
0
0
0
0
0
0
0
0
0
0
0
0
0
0
0
0
0
0
0
0
0
0
0
0
0
0
0
0
0
0
0
0
0
0
0
0
0
0
0
0
0
0
0
0
0
0
0
0
0
0
0
0
0
0
0
0
0
0
0
0
0
0
0
0
0
0
0
0
0
0
0
0
0
0
0
0
0
0
0
0
0
0
0
0
0
0
0
0
0
0
0
0
0
0
0
0
0
0
0
0
0
0
0
0
0
0
0
0
0
0
0
0
0
0
0
0
0
0
0
0
0
0
0
0
0
0
0
0
0
0
0
0
0
0
0
0
0
0
0
0
0
0
0
0
0
0
0
0
0
0
0
0
0
0
0
0
0
0
0
0
0
0
0
0
0
0
0
0
0
0
0
0
0
0
0
0
0
0
0
0
0
0
0
0
0
0
0
0
0
0
0
0
0
0
0
0
0
0
0
0
0
0
0
0
0
0
0
0
0
0
0
0
0
0
0
0
0
0
0
0
0
0
0
0
0
0
0
0
0
0
0
0
0
0
0
0
0
0
0
0
0
0
0
0
0
0
0
0
0
0
0
0
0
0
0
0
0
0
0
0
0
0
0
0
0
0
0
0
0
0
0
0
0
0
0
0
0
0
0
0
0
0
0
0
0
0
0
0
0
0
0
0
0
0
0
0
0
0
0
0
0
0
0
0
0
0
0
0
0
0
0
0
)

// normalDirections

244
(
2(1 -1)
2(1 -1)
2(1 -1)
2(1 -1)
2(1 -1)
2(1 -1)
2(1 -1)
2(1 -1)
2(1 -1)
2(1 -1)
2(1 -1)
2(1 -1)
2(1 -1)
2(1 -1)
2(1 -1)
2(1 -1)
2(1 -1)
2(1 -1)
2(1 -1)
2(1 -1)
2(1 -1)
2(1 -1)
2(1 -1)
2(1 -1)
2(1 -1)
2(1 -1)
2(1 -1)
2(1 -1)
1(1)
1(1)
1(1)
1(1)
1(1)
1(1)
1(1)
1(1)
1(1)
1(1)
1(1)
1(1)
1(1)
1(1)
1(1)
1(1)
1(1)
1(1)
1(1)
1(1)
1(1)
1(1)
1(1)
1(1)
1(1)
1(1)
1(1)
1(1)
1(1)
1(1)
1(1)
1(1)
1(1)
1(1)
1(1)
1(1)
1(1)
1(1)
1(1)
1(1)
1(1)
1(1)
1(1)
1(1)
1(1)
1(1)
1(1)
1(1)
1(1)
1(1)
1(1)
1(1)
1(1)
1(1)
1(1)
1(1)
1(1)
1(1)
1(1)
1(1)
1(1)
1(1)
1(1)
1(1)
1(1)
1(1)
1(1)
1(1)
1(1)
1(1)
1(1)
1(1)
1(1)
1(1)
1(1)
1(1)
1(1)
1(1)
1(1)
1(1)
1(1)
1(1)
1(1)
1(1)
1(1)
1(1)
1(1)
1(1)
1(1)
1(1)
1(1)
1(1)
1(1)
1(1)
1(1)
1(1)
1(1)
1(1)
1(1)
1(1)
1(1)
1(1)
1(1)
1(1)
1(1)
1(1)
1(1)
1(1)
1(1)
1(1)
1(1)
1(1)
1(1)
1(1)
1(1)
1(1)
1(1)
1(1)
1(1)
1(1)
1(1)
1(1)
1(1)
1(1)
1(1)
1(1)
1(1)
1(1)
1(1)
1(1)
1(1)
1(1)
1(1)
1(1)
1(1)
1(1)
1(1)
1(1)
1(1)
1(1)
1(1)
1(1)
1(1)
1(1)
1(1)
1(1)
1(1)
1(1)
1(1)
1(1)
1(1)
1(1)
1(1)
1(1)
1(1)
1(1)
1(1)
1(1)
1(1)
1(1)
1(1)
1(1)
1(1)
1(1)
1(1)
1(1)
1(1)
1(1)
1(1)
1(1)
1(1)
1(1)
1(1)
1(1)
1(1)
1(1)
3{1}
3{1}
3{1}
3{1}
3{1}
3{1}
3{1}
3{1}
3{1}
3{1}
3{1}
3{1}
3{1}
3{1}
3{1}
3{1}
3{1}
3{1}
3{1}
3{1}
3(1 -1 1)
3(1 -1 1)
3(1 -1 1)
3(1 -1 1)
3(1 -1 1)
3(1 -1 1)
3(1 -1 1)
3(1 -1 1)
3(1 -1 1)
3(1 -1 1)
3(1 -1 1)
3(1 -1 1)
3(1 -1 1)
3(1 -1 1)
3(1 -1 1)
3(1 -1 1)
3(1 -1 1)
3(1 -1 1)
3(1 -1 1)
3(1 -1 1)
)

// edgeNormals

244
(
2(101 280)
2(281 282)
2(283 284)
2(285 286)
2(287 288)
2(289 290)
2(291 292)
2(293 80)
2(294 295)
2(268 296)
2(297 298)
2(299 300)
2(301 302)
2(303 304)
2(305 306)
2(307 308)
2(280 104)
2(309 74)
2(310 311)
2(312 276)
2(313 314)
2(315 316)
2(317 318)
2(319 320)
2(321 322)
2(323 324)
2(325 287)
2(326 327)
1(120)
1(121)
1(122)
1(3)
1(54)
1(123)
1(124)
1(125)
1(126)
1(127)
1(128)
1(129)
1(130)
1(131)
1(132)
1(133)
1(134)
1(135)
1(136)
1(137)
1(138)
1(138)
1(139)
1(140)
1(141)
1(142)
1(143)
1(144)
1(145)
1(146)
1(59)
1(147)
1(148)
1(149)
1(150)
1(151)
1(152)
1(153)
1(154)
1(155)
1(156)
1(157)
1(158)
1(159)
1(160)
1(161)
1(162)
1(163)
1(164)
1(165)
1(166)
1(167)
1(168)
1(169)
1(170)
1(171)
1(172)
1(2)
1(173)
1(174)
1(175)
1(176)
1(177)
1(178)
1(179)
1(180)
1(181)
1(181)
1(182)
1(183)
1(184)
1(185)
1(186)
1(187)
1(188)
1(189)
1(190)
1(191)
1(192)
1(193)
1(4)
1(87)
1(1)
1(117)
1(194)
1(195)
1(196)
1(197)
1(198)
1(199)
1(200)
1(201)
1(202)
1(203)
1(204)
1(205)
1(206)
1(206)
1(207)
1(208)
1(209)
1(210)
1(211)
1(212)
1(213)
1(214)
1(88)
1(215)
1(216)
1(217)
1(218)
1(219)
1(220)
1(221)
1(222)
1(223)
1(224)
1(225)
1(226)
1(227)
1(228)
1(229)
1(230)
1(231)
1(232)
1(233)
1(234)
1(235)
1(236)
1(237)
1(238)
1(239)
1(240)
1(91)
1(241)
1(242)
1(243)
1(244)
1(245)
1(246)
1(247)
1(248)
1(249)
1(249)
1(250)
1(251)
1(252)
1(253)
1(254)
1(255)
1(256)
1(257)
1(258)
1(259)
1(260)
1(261)
1(262)
1(263)
1(264)
1(62)
1(265)
1(266)
1(267)
1(268)
1(269)
1(270)
1(271)
1(272)
1(273)
1(274)
1(275)
1(276)
1(119)
1(277)
1(278)
1(279)
3(0 1 2)
3(3 4 5)
3(6 7 8)
3(9 10 11)
3(12 13 14)
3(15 16 17)
3(18 19 20)
3(21 22 23)
3(24 25 26)
3(27 28 29)
3(30 31 32)
3(33 34 35)
3(36 37 38)
3(39 40 41)
3(42 43 44)
3(45 46 47)
3(48 49 50)
3(51 52 53)
3(54 55 56)
3(57 58 59)
3(60 61 62)
3(63 64 65)
3(66 67 68)
3(69 70 71)
3(72 73 74)
3(75 76 77)
3(78 79 80)
3(81 82 83)
3(84 85 86)
3(87 88 89)
3(90 91 92)
3(93 94 95)
3(96 97 98)
3(99 100 101)
3(102 103 104)
3(105 106 107)
3(108 109 110)
3(111 112 113)
3(114 115 116)
3(117 118 119)
)

// featurePointNormals

24
(
3(120 2 1)
3(3 126 4)
3(54 193 117)
3(125 59 87)
1(138)
1(158)
1(160)
1(181)
2(4 194)
4(285 286 74 69)
4(293 80 326 75)
2(87 88)
2(1 91)
4(101 280 104 99)
4(287 288 325 105)
2(117 261)
1(206)
1(226)
1(228)
1(249)
2(294 295)
2(268 296)
2(310 311)
2(312 276)
)

// featurePointEdges

24
(
4(204 28 85 110)
4(205 31 36 108)
4(222 32 107 111)
4(223 35 58 109)
2(48 49)
2(70 71)
2(72 73)
2(94 95)
4(224 108 112 187)
4(227 228 3 17)
4(229 230 27 7)
4(233 109 134 203)
4(234 110 161 184)
4(237 238 0 16)
4(239 240 26 4)
4(243 111 183 200)
2(124 125)
2(146 147)
2(148 149)
2(170 171)
3(8 188 192)
3(9 191 193)
3(18 194 195)
3(19 198 199)
)

// regionEdges

216
(
204
205
206
207
208
209
210
211
212
213
214
215
216
217
218
219
220
221
222
223
224
225
226
227
228
229
230
231
232
233
234
235
236
237
238
239
240
241
242
243
28
29
30
31
32
33
34
35
36
37
38
39
40
41
42
43
44
45
46
47
48
49
50
51
52
53
54
55
56
57
58
59
60
61
62
63
64
65
66
67
68
69
70
71
72
73
74
75
76
77
78
79
80
81
82
83
84
85
86
87
88
89
90
91
92
93
94
95
96
97
98
99
100
101
102
103
104
105
106
107
108
109
110
111
112
113
114
115
116
117
118
119
120
121
122
123
124
125
126
127
128
129
130
131
132
133
134
135
136
137
138
139
140
141
142
143
144
145
146
147
148
149
150
151
152
153
154
155
156
157
158
159
160
161
162
163
164
165
166
167
168
169
170
171
172
173
174
175
176
177
178
179
180
181
182
183
184
185
186
187
188
189
190
191
192
193
194
195
196
197
198
199
200
201
202
203
)



// ************************************************************************* //
