/*--------------------------------*- C++ -*----------------------------------*\
| =========                 |                                                 |
| \\      /  F ield         | OpenFOAM: The Open Source CFD Toolbox           |
|  \\    /   O peration     | Version:  v2012                                 |
|   \\  /    A nd           | Website:  www.openfoam.com                      |
|    \\/     M anipulation  |                                                 |
\*---------------------------------------------------------------------------*/
FoamFile
{
    version     2.0;
    format      ascii;
    class       volScalarField;
    location    "0/heater";
    object      T;
}
// * * * * * * * * * * * * * * * * * * * * * * * * * * * * * * * * * * * * * //

dimensions      [0 0 0 1 0 0 0];


internalField   uniform 300;

boundaryField
{
    minY
    {
        type            calculated;
        value           uniform 300;
    }
    minZ
    {
        type            calculated;
        value           uniform 300;
    }
    maxZ
    {
        type            calculated;
        value           uniform 300;
    }
    heater_to_topAir
    {
        type            calculated;
        value           uniform 0;
    }
    heater_to_rightSolid
    {
        type            calculated;
        value           uniform 0;
    }
    heater_to_leftSolid
    {
        type            calculated;
        value           uniform 0;
    }
    heater_to_bottomAir
    {
        type            calculated;
        value           uniform 0;
    }
}


// ************************************************************************* //
