/*--------------------------------*- C++ -*----------------------------------*\
| =========                 |                                                 |
| \\      /  F ield         | OpenFOAM: The Open Source CFD Toolbox           |
|  \\    /   O peration     | Version:  v2012                                 |
|   \\  /    A nd           | Website:  www.openfoam.com                      |
|    \\/     M anipulation  |                                                 |
\*---------------------------------------------------------------------------*/
FoamFile
{
    version     2.0;
    format      ascii;
    class       scalarListList;
    location    "constant/topAir";
    object      F;
}
// * * * * * * * * * * * * * * * * * * * * * * * * * * * * * * * * * * * * * //


139
(

102
(
0.04198195
0.2082757
0.02157394
0.02695246
0.00574785
0.003223344
0.001717666
0.0007428825
0.0006389013
0.0002480937
0.0003650381
0.0001253058
0.0003569116
0.0001224753
0.0003340964
0.0001145367
0.000300655
0.0001029216
0.0002616684
8.941384e-05
0.05128166
0.2321752
0.01982547
0.02939302
0.003145826
0.001570933
0.0007245591
0.0002868518
0.0002398289
8.783722e-05
0.0001001004
3.540801e-05
4.874066e-05
1.692472e-05
2.026952e-05
0.003819635
0.00143706
0.003294219
0.001228975
0.002224883
0.0008136499
0.001313217
0.0004699555
0.0007445789
0.000261754
0.00042755
0.000148347
0.0002541128
8.735078e-05
0.0001175451
0.0009661335
0.0004280572
0.0002167484
0.0001618251
0.000909888
0.0004113115
0.0002325687
0.0007679923
0.0003666151
0.000146348
0.0005961251
0.0003068833
0.0001702153
0.0004384875
0.0002451418
0.000169778
0.0008381939
0.0004818172
0.0008381939
0.0004818172
0.0007925355
0.0004617823
0.0007118367
0.0004253196
0.000612257
0.0003782822
0.0005091987
0.0003268813
0.0004134519
0.0002762155
0.000330545
0.0002296417
0.0002619899
0.0001888538
0.0002069446
0.0001543092
0.1282549
0.06230434
0.01370525
0.006175532
0.07746137
0.04159225
0.01135063
0.02559676
0.01679775
0.003692096
0.008379979
0.006412157
0.003325094
0.003236776
0.002714304
0.002013669
)


106
(
4.728079e-35
9.367313e-35
1.535289e-35
1.586447e-35
0.02157394
0.02695246
0.04198195
0.2082757
0.02157394
0.02695246
0.00574785
0.003223344
0.001717666
0.0007428825
0.0003569116
0.0001224753
0.0003650381
0.0001253058
0.0003569116
0.0001224753
0.0003340964
0.0001145367
0.000300655
0.0001029216
0.0395415
0.02958501
0.0214386
0.01319326
0.005855444
0.002626042
0.00171428
0.0006637524
0.0006270443
0.00022808
0.0002747478
9.691754e-05
0.0001374255
4.765724e-05
5.792279e-05
0.007366724
0.002983046
0.005898334
0.002341745
0.003362997
0.001279242
0.001669918
0.0006104103
0.0008285559
0.0002945103
0.0004333156
0.0001512427
0.0002414986
8.329421e-05
0.0001077474
0.000909888
0.0004113115
0.0002106854
0.0001641652
0.0009661335
0.0004280572
0.0002465137
0.000909888
0.0004113115
0.0001586369
0.0007679923
0.0003666151
0.0001939572
0.0005961251
0.0003068833
0.0002002809
0.0007118367
0.0004253196
0.0007925355
0.0004617823
0.0008381939
0.0004818172
0.0008381939
0.0004818172
0.0007925355
0.0004617823
0.0007118367
0.0004253196
0.000612257
0.0003782822
0.0005091987
0.0003268813
0.0004134519
0.0002762155
0.000330545
0.0002296417
0.07746137
0.04159225
0.0110252
0.006870779
0.1282549
0.06230434
0.01659772
0.07746137
0.04159225
0.005670383
0.02559676
0.01679775
0.006433548
0.008379979
0.006412157
0.003823
)


102
(
0.00574785
0.003223344
0.02157394
0.02695246
0.04198195
0.2082757
0.02157394
0.02695246
0.00574785
0.003223344
0.0003340964
0.0001145367
0.0003569116
0.0001224753
0.0003650381
0.0001253058
0.0003569116
0.0001224753
0.0003340964
0.0001145367
0.01623929
0.007736492
0.01135204
0.00511749
0.0048942
0.001985033
0.001916797
0.0007200322
0.0008154003
0.0002933387
0.0003877369
0.0001361211
0.0002034638
7.039094e-05
8.789548e-05
0.01623929
0.007736492
0.01135204
0.00511749
0.0048942
0.001985033
0.001916797
0.0007200322
0.0008154003
0.0002933387
0.0003877369
0.0001361211
0.0002034638
7.039094e-05
8.789548e-05
0.0007679923
0.0003666151
0.0001939572
0.0001586369
0.000909888
0.0004113115
0.0002465137
0.0009661335
0.0004280572
0.0001641652
0.000909888
0.0004113115
0.0002106854
0.0007679923
0.0003666151
0.0002274557
0.0005091987
0.0003268813
0.000612257
0.0003782822
0.0007118367
0.0004253196
0.0007925355
0.0004617823
0.0008381939
0.0004818172
0.0008381939
0.0004818172
0.0007925355
0.0004617823
0.0007118367
0.0004253196
0.000612257
0.0003782822
0.0005091987
0.0003268813
0.02559676
0.01679775
0.006433548
0.005670383
0.07746137
0.04159225
0.01659772
0.1282549
0.06230434
0.006870779
0.07746137
0.04159225
0.0110252
0.02559676
0.01679775
0.007238363
)


104
(
2.630973e-34
3.908702e-35
0.001717666
0.0007428825
0.00574785
0.003223344
0.02157394
0.02695246
0.04198195
0.2082757
0.02157394
0.02695246
0.000300655
0.0001029216
0.0003340964
0.0001145367
0.0003569116
0.0001224753
0.0003650381
0.0001253058
0.0003569116
0.0001224753
0.007366724
0.002983046
0.005898334
0.002341745
0.003362997
0.001279242
0.001669918
0.0006104103
0.0008285559
0.0002945103
0.0004333156
0.0001512427
0.0002414986
8.329421e-05
0.0001077474
0.0395415
0.02958501
0.0214386
0.01319326
0.005855444
0.002626042
0.00171428
0.0006637524
0.0006270443
0.00022808
0.0002747478
9.691754e-05
0.0001374255
4.765724e-05
5.792279e-05
0.0005961251
0.0003068833
0.0001702153
0.000146348
0.0007679923
0.0003666151
0.0002325687
0.000909888
0.0004113115
0.0001618251
0.0009661335
0.0004280572
0.0002167484
0.000909888
0.0004113115
0.0002465338
0.000330545
0.0002296417
0.0004134519
0.0002762155
0.0005091987
0.0003268813
0.000612257
0.0003782822
0.0007118367
0.0004253196
0.0007925355
0.0004617823
0.0008381939
0.0004818172
0.0008381939
0.0004818172
0.0007925355
0.0004617823
0.0007118367
0.0004253196
0.008379979
0.006412157
0.003325094
0.003692096
0.02559676
0.01679775
0.01135063
0.07746137
0.04159225
0.006175532
0.1282549
0.06230434
0.01370525
0.07746137
0.04159225
0.01217203
)


102
(
0.0006389013
0.0002480937
0.001717666
0.0007428825
0.00574785
0.003223344
0.02157394
0.02695246
0.04198195
0.2082757
0.0002616684
8.941384e-05
0.000300655
0.0001029216
0.0003340964
0.0001145367
0.0003569116
0.0001224753
0.0003650381
0.0001253058
0.003819635
0.00143706
0.003294219
0.001228975
0.002224883
0.0008136499
0.001313217
0.0004699555
0.0007445789
0.000261754
0.00042755
0.000148347
0.0002541128
8.735078e-05
0.0001175451
0.05128166
0.2321752
0.01982547
0.02939302
0.003145826
0.001570933
0.0007245591
0.0002868518
0.0002398289
8.783722e-05
0.0001001004
3.540801e-05
4.874066e-05
1.692472e-05
2.026952e-05
0.0004384875
0.0002451418
0.0001436971
0.0001295664
0.0005961251
0.0003068833
0.0002079687
0.0007679923
0.0003666151
0.0001521308
0.000909888
0.0004113115
0.0002106854
0.0009661335
0.0004280572
0.0002534352
0.0002069446
0.0001543092
0.0002619899
0.0001888538
0.000330545
0.0002296417
0.0004134519
0.0002762155
0.0005091987
0.0003268813
0.000612257
0.0003782822
0.0007118367
0.0004253196
0.0007925355
0.0004617823
0.0008381939
0.0004818172
0.0008381939
0.0004818172
0.003236776
0.002714304
0.001718746
0.002140209
0.008379979
0.006412157
0.006021887
0.02559676
0.01679775
0.004341018
0.07746137
0.04159225
0.0110252
0.1282549
0.06230434
0.01501521
)


102
(
0.02065159
0.01239259
0.01485894
0.008062967
0.006930887
0.003156193
0.002954318
0.001195116
0.001337334
0.0005059003
0.0005735773
0.0001989865
0.0005563892
0.000192905
0.0005092185
0.0001762445
0.0004429372
0.0001529097
0.0003698977
0.0001273043
0.01982548
0.02939303
0.05128165
0.2321752
0.01982548
0.02939303
0.003145825
0.001570932
0.0007245589
0.0002868518
0.0002398289
8.783724e-05
0.0001001004
3.540801e-05
3.818595e-05
0.00329422
0.001228976
0.003819634
0.001437059
0.00329422
0.001228976
0.002224883
0.0008136497
0.001313217
0.0004699554
0.0007445791
0.0002617541
0.00042755
0.000148347
0.0001920074
0.002640023
0.0009661333
0.000428057
0.0003022052
0.002391475
0.0009098878
0.0004563616
0.00182662
0.0007679922
0.0002641152
0.001249855
0.000596125
0.0003068832
0.0008120978
0.0004384875
0.0002882327
0.003172705
0.001566684
0.003172705
0.001566684
0.002848419
0.001451449
0.002333593
0.001256379
0.001789646
0.001030528
0.001318435
0.0008137063
0.0009526091
0.0006274415
0.0006848461
0.0004779015
0.0004943447
0.000362557
0.0003601693
0.000275518
0.06230437
0.1282549
0.06230437
0.02445753
0.04159227
0.07746135
0.0370604
0.01679776
0.02559675
0.01005696
0.006412159
0.008379976
0.006412159
0.002714305
0.003236775
0.003235384
)


106
(
6.042434e-34
3.259844e-34
1.052176e-34
6.640509e-35
0.01485894
0.008062967
0.02065159
0.01239259
0.01485894
0.008062967
0.006930887
0.003156193
0.002954318
0.001195116
0.0005563892
0.000192905
0.0005735773
0.0001989865
0.0005563892
0.000192905
0.0005092185
0.0001762445
0.0004429372
0.0001529097
0.02143861
0.01319327
0.03954149
0.029585
0.02143861
0.01319327
0.005855442
0.002626041
0.00171428
0.0006637523
0.0006270445
0.0002280801
0.0002747478
9.691752e-05
0.0001071776
0.005898336
0.002341746
0.007366722
0.002983045
0.005898336
0.002341746
0.003362996
0.001279242
0.001669918
0.0006104102
0.0008285561
0.0002945103
0.0004333155
0.0001512426
0.0001847372
0.002391475
0.0009098878
0.0004113113
0.0003083522
0.002640023
0.0009661333
0.0004950404
0.002391475
0.0009098878
0.000294416
0.00182662
0.0007679922
0.000366615
0.001249855
0.000596125
0.0003587139
0.002333593
0.001256379
0.002848419
0.001451449
0.003172705
0.001566684
0.003172705
0.001566684
0.002848419
0.001451449
0.002333593
0.001256379
0.001789646
0.001030528
0.001318435
0.0008137063
0.0009526091
0.0006274415
0.0006848461
0.0004779015
0.04159227
0.07746135
0.04159227
0.0303005
0.06230437
0.1282549
0.06877583
0.04159227
0.07746135
0.02120714
0.01679776
0.02559675
0.01679776
0.006412159
0.008379976
0.007492359
)


102
(
0.006930887
0.003156193
0.01485894
0.008062967
0.02065159
0.01239259
0.01485894
0.008062967
0.006930887
0.003156193
0.0005092185
0.0001762445
0.0005563892
0.000192905
0.0005735773
0.0001989865
0.0005563892
0.000192905
0.0005092185
0.0001762445
0.01135205
0.005117491
0.01623928
0.00773649
0.01135205
0.005117491
0.004894199
0.001985032
0.001916796
0.0007200321
0.0008154004
0.0002933388
0.0003877368
0.0001361211
0.0001573596
0.01135205
0.005117491
0.01623928
0.00773649
0.01135205
0.005117491
0.004894199
0.001985032
0.001916796
0.0007200321
0.0008154004
0.0002933388
0.0003877368
0.0001361211
0.0001573596
0.00182662
0.0007679922
0.000366615
0.000294416
0.002391475
0.0009098878
0.0004950404
0.002640023
0.0009661333
0.0003083522
0.002391475
0.0009098878
0.0004113113
0.00182662
0.0007679922
0.0004264252
0.001318435
0.0008137063
0.001789646
0.001030528
0.002333593
0.001256379
0.002848419
0.001451449
0.003172705
0.001566684
0.003172705
0.001566684
0.002848419
0.001451449
0.002333593
0.001256379
0.001789646
0.001030528
0.001318435
0.0008137063
0.01679776
0.02559675
0.01679776
0.02120714
0.04159227
0.07746135
0.06877583
0.06230437
0.1282549
0.0303005
0.04159227
0.07746135
0.04159227
0.01679776
0.02559675
0.0190838
)


104
(
1.516332e-33
1.589079e-34
0.002954318
0.001195116
0.006930887
0.003156193
0.01485894
0.008062967
0.02065159
0.01239259
0.01485894
0.008062967
0.0004429372
0.0001529097
0.0005092185
0.0001762445
0.0005563892
0.000192905
0.0005735773
0.0001989865
0.0005563892
0.000192905
0.005898336
0.002341746
0.007366722
0.002983045
0.005898336
0.002341746
0.003362996
0.001279242
0.001669918
0.0006104102
0.0008285561
0.0002945103
0.0004333155
0.0001512426
0.0001847372
0.02143861
0.01319327
0.03954149
0.029585
0.02143861
0.01319327
0.005855442
0.002626041
0.00171428
0.0006637523
0.0006270445
0.0002280801
0.0002747478
9.691752e-05
0.0001071776
0.001249855
0.000596125
0.0003068832
0.0002641152
0.00182662
0.0007679922
0.0004563616
0.002391475
0.0009098878
0.0003022052
0.002640023
0.0009661333
0.000428057
0.002391475
0.0009098878
0.0004768267
0.0006848461
0.0004779015
0.0009526091
0.0006274415
0.001318435
0.0008137063
0.001789646
0.001030528
0.002333593
0.001256379
0.002848419
0.001451449
0.003172705
0.001566684
0.003172705
0.001566684
0.002848419
0.001451449
0.002333593
0.001256379
0.006412159
0.008379976
0.006412159
0.01005696
0.01679776
0.02559675
0.0370604
0.04159227
0.07746135
0.02445753
0.06230437
0.1282549
0.06230437
0.04159227
0.07746135
0.04587445
)


102
(
0.001337334
0.0005059003
0.002954318
0.001195116
0.006930887
0.003156193
0.01485894
0.008062967
0.02065159
0.01239259
0.0003698977
0.0001273043
0.0004429372
0.0001529097
0.0005092185
0.0001762445
0.0005563892
0.000192905
0.0005735773
0.0001989865
0.00329422
0.001228976
0.003819634
0.001437059
0.00329422
0.001228976
0.002224883
0.0008136497
0.001313217
0.0004699554
0.0007445791
0.0002617541
0.00042755
0.000148347
0.0001920074
0.01982548
0.02939303
0.05128165
0.2321752
0.01982548
0.02939303
0.003145825
0.001570932
0.0007245589
0.0002868518
0.0002398289
8.783724e-05
0.0001001004
3.540801e-05
3.818595e-05
0.0008120978
0.0004384875
0.0002451417
0.0002246844
0.001249855
0.000596125
0.0003912612
0.00182662
0.0007679922
0.0002777998
0.002391475
0.0009098878
0.0004113113
0.002640023
0.0009661333
0.0004956564
0.0003601693
0.000275518
0.0004943447
0.000362557
0.0006848461
0.0004779015
0.0009526091
0.0006274415
0.001318435
0.0008137063
0.001789646
0.001030528
0.002333593
0.001256379
0.002848419
0.001451449
0.003172705
0.001566684
0.003172705
0.001566684
0.002714305
0.003236775
0.002714305
0.004387472
0.006412159
0.008379976
0.01373301
0.01679776
0.02559675
0.01325894
0.04159227
0.07746135
0.04159227
0.06230437
0.1282549
0.06784079
)


102
(
0.006561802
0.002742947
0.00562704
0.0023103
0.003764495
0.001484106
0.002213638
0.0008372735
0.001257984
0.0004605925
0.0009739144
0.0003438492
0.0009326541
0.0003288663
0.0008234611
0.0002893555
0.0006798013
0.0002377
0.0005343073
0.0001857951
0.003145826
0.001570933
0.01982547
0.02939302
0.05128166
0.2321752
0.01982548
0.02939302
0.003145825
0.001570932
0.0007245592
0.0002868519
0.0002398289
8.783723e-05
8.088299e-05
0.002224883
0.0008136499
0.003294219
0.001228975
0.003819635
0.00143706
0.003294219
0.001228975
0.002224883
0.0008136496
0.001313217
0.0004699555
0.000744579
0.0002617541
0.0003266716
0.009478784
0.002640023
0.0009661329
0.0006293621
0.007889844
0.002391475
0.001010475
0.004952318
0.00182662
0.0005209904
0.002742799
0.001249854
0.0005961248
0.00149259
0.0008120978
0.0005131992
0.01495884
0.006891238
0.01495884
0.006891238
0.01203402
0.00589995
0.008237054
0.004463731
0.005181642
0.003125211
0.003180345
0.002109797
0.001969397
0.001412232
0.001249106
0.0009524656
0.0008156957
0.0006525283
0.000548686
0.000455682
0.01370525
0.06230434
0.1282549
0.07811096
0.0110252
0.04159225
0.05152908
0.006433548
0.01679775
0.02019433
0.003325094
0.006412157
0.008379979
0.001718746
0.002714304
0.003999566
)


106
(
0
5.255382e-34
0
7.369399e-35
0.00562704
0.0023103
0.006561802
0.002742947
0.00562704
0.0023103
0.003764495
0.001484106
0.002213638
0.0008372735
0.0009326541
0.0003288663
0.0009739144
0.0003438492
0.0009326541
0.0003288663
0.0008234611
0.0002893555
0.0006798013
0.0002377
0.005855444
0.002626042
0.0214386
0.01319326
0.0395415
0.02958501
0.02143861
0.01319327
0.005855441
0.002626041
0.00171428
0.0006637525
0.0006270444
0.00022808
0.000220316
0.003362997
0.001279242
0.005898334
0.002341745
0.007366724
0.002983046
0.005898335
0.002341746
0.003362996
0.001279241
0.001669918
0.0006104104
0.000828556
0.0002945103
0.0003370537
0.007889844
0.002391475
0.0009098874
0.0006485865
0.009478784
0.002640023
0.001139774
0.007889844
0.002391475
0.0006073778
0.004952318
0.00182662
0.0007679919
0.002742799
0.001249854
0.0006917577
0.008237054
0.004463731
0.01203402
0.00589995
0.01495884
0.006891238
0.01495884
0.006891238
0.01203402
0.00589995
0.008237054
0.004463731
0.005181642
0.003125211
0.003180345
0.002109797
0.001969397
0.001412232
0.001249106
0.0009524656
0.0110252
0.04159225
0.07746137
0.1035077
0.01370525
0.06230434
0.1028582
0.0110252
0.04159225
0.05945715
0.006433548
0.01679775
0.02559676
0.003325094
0.006412157
0.01028914
)


102
(
0.003764495
0.001484106
0.00562704
0.0023103
0.006561802
0.002742947
0.00562704
0.0023103
0.003764495
0.001484106
0.0008234611
0.0002893555
0.0009326541
0.0003288663
0.0009739144
0.0003438492
0.0009326541
0.0003288663
0.0008234611
0.0002893555
0.0048942
0.001985033
0.01135204
0.00511749
0.01623929
0.007736492
0.01135204
0.00511749
0.004894198
0.001985032
0.001916797
0.0007200323
0.0008154003
0.0002933387
0.0003067407
0.0048942
0.001985033
0.01135204
0.00511749
0.01623929
0.007736492
0.01135204
0.00511749
0.004894198
0.001985032
0.001916797
0.0007200323
0.0008154003
0.0002933387
0.0003067407
0.004952318
0.00182662
0.0007679919
0.0006073778
0.007889844
0.002391475
0.001139774
0.009478784
0.002640023
0.0006485865
0.007889844
0.002391475
0.0009098874
0.004952318
0.00182662
0.0008844558
0.003180345
0.002109797
0.005181642
0.003125211
0.008237054
0.004463731
0.01203402
0.00589995
0.01495884
0.006891238
0.01495884
0.006891238
0.01203402
0.00589995
0.008237054
0.004463731
0.005181642
0.003125211
0.003180345
0.002109797
0.006433548
0.01679775
0.02559676
0.05945715
0.0110252
0.04159225
0.1028582
0.01370525
0.06230434
0.1035077
0.0110252
0.04159225
0.07746137
0.006433548
0.01679775
0.03108356
)


104
(
1.678654e-32
4.83645e-34
0.002213638
0.0008372735
0.003764495
0.001484106
0.00562704
0.0023103
0.006561802
0.002742947
0.00562704
0.0023103
0.0006798013
0.0002377
0.0008234611
0.0002893555
0.0009326541
0.0003288663
0.0009739144
0.0003438492
0.0009326541
0.0003288663
0.003362997
0.001279242
0.005898334
0.002341745
0.007366724
0.002983046
0.005898335
0.002341746
0.003362996
0.001279241
0.001669918
0.0006104104
0.000828556
0.0002945103
0.0003370537
0.005855444
0.002626042
0.0214386
0.01319326
0.0395415
0.02958501
0.02143861
0.01319327
0.005855441
0.002626041
0.00171428
0.0006637525
0.0006270444
0.00022808
0.000220316
0.002742799
0.001249854
0.0005961248
0.0005209904
0.004952318
0.00182662
0.001010475
0.007889844
0.002391475
0.0006293621
0.009478784
0.002640023
0.0009661329
0.007889844
0.002391475
0.00104229
0.001249106
0.0009524656
0.001969397
0.001412232
0.003180345
0.002109797
0.005181642
0.003125211
0.008237054
0.004463731
0.01203402
0.00589995
0.01495884
0.006891238
0.01495884
0.006891238
0.01203402
0.00589995
0.008237054
0.004463731
0.003325094
0.006412157
0.008379979
0.02019433
0.006433548
0.01679775
0.05152908
0.0110252
0.04159225
0.07811096
0.01370525
0.06230434
0.1282549
0.0110252
0.04159225
0.09270105
)


102
(
0.001257984
0.0004605925
0.002213638
0.0008372735
0.003764495
0.001484106
0.00562704
0.0023103
0.006561802
0.002742947
0.0005343073
0.0001857951
0.0006798013
0.0002377
0.0008234611
0.0002893555
0.0009326541
0.0003288663
0.0009739144
0.0003438492
0.002224883
0.0008136499
0.003294219
0.001228975
0.003819635
0.00143706
0.003294219
0.001228975
0.002224883
0.0008136496
0.001313217
0.0004699555
0.000744579
0.0002617541
0.0003266716
0.003145826
0.001570933
0.01982547
0.02939302
0.05128166
0.2321752
0.01982548
0.02939302
0.003145825
0.001570932
0.0007245592
0.0002868519
0.0002398289
8.783723e-05
8.088299e-05
0.00149259
0.0008120978
0.0004384873
0.0004167758
0.002742799
0.001249854
0.0008087922
0.004952318
0.00182662
0.0005577604
0.007889844
0.002391475
0.0009098874
0.009478784
0.002640023
0.001104581
0.000548686
0.000455682
0.0008156957
0.0006525283
0.001249106
0.0009524656
0.001969397
0.001412232
0.003180345
0.002109797
0.005181642
0.003125211
0.008237054
0.004463731
0.01203402
0.00589995
0.01495884
0.006891238
0.01495884
0.006891238
0.001718746
0.002714304
0.003236776
0.006861935
0.003325094
0.006412157
0.01698837
0.006433548
0.01679775
0.03352485
0.0110252
0.04159225
0.07746137
0.01370525
0.06230434
0.1523955
)


102
(
0.002674621
0.001002063
0.002457249
0.0009159643
0.001943043
0.0007149933
0.001384421
0.0005013441
0.0009327671
0.0003326473
0.001841698
0.0006714839
0.001723815
0.0006266048
0.001430818
0.0005159688
0.001085176
0.0003872471
0.0007783368
0.0002747879
0.0007245592
0.0002868519
0.003145824
0.001570932
0.01982548
0.02939302
0.05128166
0.2321752
0.01982548
0.02939302
0.003145826
0.001570933
0.0007245591
0.0002868518
0.0002028161
0.001313217
0.0004699555
0.002224882
0.0008136495
0.00329422
0.001228976
0.003819635
0.00143706
0.003294219
0.001228975
0.002224883
0.0008136499
0.001313217
0.0004699555
0.0005744745
0.04370019
0.009478783
0.002640022
0.001521954
0.03063477
0.007889843
0.002625828
0.013597
0.004952317
0.001148752
0.005583203
0.002742799
0.001249854
0.002472593
0.00149259
0.0009476844
0.03392362
0.0271722
0.03392362
0.0271722
0.02529889
0.02068525
0.01533638
0.01296746
0.008508219
0.007450294
0.00469401
0.004233763
0.002675336
0.002468601
0.001593922
0.001495913
0.0009930787
0.0009438208
0.0006446604
0.0006184872
0.003530395
0.01370524
0.06230436
0.07557021
0.003149776
0.01102519
0.02132964
0.002317954
0.006433544
0.01835966
0.001518654
0.003325092
0.006412159
0.000948778
0.001718745
0.003513823
)


103
(
2.7179e-33
0.002457249
0.0009159643
0.002674621
0.001002063
0.002457249
0.0009159643
0.001943043
0.0007149933
0.001384421
0.0005013441
0.001723815
0.0006266048
0.001841698
0.0006714839
0.001723815
0.0006266048
0.001430818
0.0005159688
0.001085176
0.0003872471
0.00171428
0.0006637525
0.00585544
0.00262604
0.02143861
0.01319327
0.03954149
0.02958501
0.02143861
0.01319327
0.005855443
0.002626042
0.00171428
0.0006637524
0.0005227918
0.001669918
0.0006104104
0.003362995
0.001279241
0.005898336
0.002341746
0.007366723
0.002983046
0.005898334
0.002341745
0.003362997
0.001279242
0.001669918
0.0006104103
0.0006564051
0.03063477
0.007889843
0.002391474
0.001598486
0.04370019
0.009478783
0.00318076
0.03063477
0.007889843
0.001446775
0.013597
0.004952317
0.001826619
0.005583203
0.002742799
0.001440369
0.01533638
0.01296746
0.02529889
0.02068525
0.03392362
0.0271722
0.03392362
0.0271722
0.02529889
0.02068525
0.01533638
0.01296746
0.008508219
0.007450294
0.00469401
0.004233763
0.002675336
0.002468601
0.001593922
0.001495913
0.003149776
0.01102519
0.04159226
0.09043933
0.003530395
0.01370524
0.03512083
0.003149776
0.01102519
0.05156365
0.002317954
0.006433544
0.01679775
0.001518654
0.003325092
0.008467519
)


105
(
4.72808e-35
6.042432e-34
0
0.001943043
0.0007149933
0.002457249
0.0009159643
0.002674621
0.001002063
0.002457249
0.0009159643
0.001943043
0.0007149933
0.001430818
0.0005159688
0.001723815
0.0006266048
0.001841698
0.0006714839
0.001723815
0.0006266048
0.001430818
0.0005159688
0.001916797
0.0007200323
0.004894197
0.001985032
0.01135205
0.005117491
0.01623928
0.007736491
0.01135204
0.00511749
0.0048942
0.001985032
0.001916797
0.0007200322
0.0006638715
0.001916797
0.0007200323
0.004894197
0.001985032
0.01135205
0.005117491
0.01623928
0.007736491
0.01135204
0.00511749
0.0048942
0.001985032
0.001916797
0.0007200322
0.0006638715
0.013597
0.004952317
0.001826619
0.001446775
0.03063477
0.007889843
0.00318076
0.04370019
0.009478783
0.001598486
0.03063477
0.007889843
0.002391474
0.013597
0.004952317
0.002079693
0.00469401
0.004233763
0.008508219
0.007450294
0.01533638
0.01296746
0.02529889
0.02068525
0.03392362
0.0271722
0.03392362
0.0271722
0.02529889
0.02068525
0.01533638
0.01296746
0.008508219
0.007450294
0.00469401
0.004233763
0.002317954
0.006433544
0.01679775
0.05156365
0.003149776
0.01102519
0.03512083
0.003530395
0.01370524
0.09043933
0.003149776
0.01102519
0.04159226
0.002317954
0.006433544
0.02299502
)


103
(
6.914895e-33
0.001384421
0.0005013441
0.001943043
0.0007149933
0.002457249
0.0009159643
0.002674621
0.001002063
0.002457249
0.0009159643
0.001085176
0.0003872471
0.001430818
0.0005159688
0.001723815
0.0006266048
0.001841698
0.0006714839
0.001723815
0.0006266048
0.001669918
0.0006104104
0.003362995
0.001279241
0.005898336
0.002341746
0.007366723
0.002983046
0.005898334
0.002341745
0.003362997
0.001279242
0.001669918
0.0006104103
0.0006564051
0.00171428
0.0006637525
0.00585544
0.00262604
0.02143861
0.01319327
0.03954149
0.02958501
0.02143861
0.01319327
0.005855443
0.002626042
0.00171428
0.0006637524
0.0005227918
0.005583203
0.002742799
0.001249854
0.001148752
0.013597
0.004952317
0.002625828
0.03063477
0.007889843
0.001521954
0.04370019
0.009478783
0.002640022
0.03063477
0.007889843
0.002698074
0.001593922
0.001495913
0.002675336
0.002468601
0.00469401
0.004233763
0.008508219
0.007450294
0.01533638
0.01296746
0.02529889
0.02068525
0.03392362
0.0271722
0.03392362
0.0271722
0.02529889
0.02068525
0.01533638
0.01296746
0.001518654
0.003325092
0.006412159
0.01835966
0.002317954
0.006433544
0.02132964
0.003149776
0.01102519
0.07557021
0.003530395
0.01370524
0.06230436
0.003149776
0.01102519
0.06000531
)


108
(
9.367314e-35
2.630973e-34
3.259843e-34
1.516332e-33
5.255383e-34
1.678654e-32
0.0009327671
0.0003326473
0.001384421
0.0005013441
0.001943043
0.0007149933
0.002457249
0.0009159643
0.002674621
0.001002063
0.0007783368
0.0002747879
0.001085176
0.0003872471
0.001430818
0.0005159688
0.001723815
0.0006266048
0.001841698
0.0006714839
0.001313217
0.0004699555
0.002224882
0.0008136495
0.00329422
0.001228976
0.003819635
0.00143706
0.003294219
0.001228975
0.002224883
0.0008136499
0.001313217
0.0004699555
0.0005744745
0.0007245592
0.0002868519
0.003145824
0.001570932
0.01982548
0.02939302
0.05128166
0.2321752
0.01982548
0.02939302
0.003145826
0.001570933
0.0007245591
0.0002868518
0.0002028161
0.002472593
0.00149259
0.0008120975
0.0008319587
0.005583203
0.002742799
0.001865452
0.013597
0.004952317
0.001264837
0.03063477
0.007889843
0.002391474
0.04370019
0.009478783
0.002968274
0.0006446604
0.0006184872
0.0009930787
0.0009438208
0.001593922
0.001495913
0.002675336
0.002468601
0.00469401
0.004233763
0.008508219
0.007450294
0.01533638
0.01296746
0.02529889
0.02068525
0.03392362
0.0271722
0.03392362
0.0271722
0.000948778
0.001718745
0.002714305
0.006480843
0.001518654
0.003325092
0.009476912
0.002317954
0.006433544
0.03471735
0.003149776
0.01102519
0.04159226
0.003530395
0.01370524
0.09250818
)


102
(
0.001318083
0.0004716549
0.001250106
0.0004464767
0.001074966
0.000381948
0.0008551783
0.0003017098
0.0006451846
0.0002258918
0.004071445
0.001590172
0.00363995
0.001408723
0.002688168
0.001017591
0.001763563
0.0006509004
0.001100169
0.0003971262
0.0002398289
8.783725e-05
0.0007245589
0.0002868517
0.003145825
0.001570932
0.01982548
0.02939303
0.05128165
0.2321752
0.01982548
0.02939303
0.003145825
0.001570932
0.0006601753
0.0007445791
0.0002617541
0.001313217
0.0004699553
0.002224883
0.0008136498
0.00329422
0.001228976
0.003819634
0.001437059
0.00329422
0.001228976
0.002224883
0.0008136498
0.001017238
0.1221917
0.04370017
0.009478779
0.004523567
0.074288
0.03063477
0.008290093
0.02488629
0.013597
0.002880345
0.008233776
0.005583202
0.002742798
0.003200048
0.002472593
0.001745306
0.01495885
0.0271722
0.01495885
0.0271722
0.01203402
0.02068525
0.008237056
0.01296746
0.005181643
0.007450293
0.003180346
0.004233763
0.001969397
0.002468601
0.001249106
0.001495913
0.0008156958
0.0009438208
0.000548686
0.0006184871
0.001216612
0.003530394
0.01370525
0.02163402
0.001137431
0.003149775
0.006108118
0.0009416561
0.002317953
0.008277637
0.000712454
0.001518653
0.003325093
0.0005103551
0.0009487776
0.002305878
)


102
(
0.001250106
0.0004464767
0.001318083
0.0004716549
0.001250106
0.0004464767
0.001074966
0.000381948
0.0008551783
0.0003017098
0.00363995
0.001408723
0.004071445
0.001590172
0.00363995
0.001408723
0.002688168
0.001017591
0.001763563
0.0006509004
0.0006270445
0.0002280801
0.001714279
0.0006637522
0.005855443
0.002626041
0.02143861
0.01319327
0.03954149
0.02958501
0.02143861
0.01319327
0.005855442
0.002626041
0.001513835
0.0008285561
0.0002945103
0.001669917
0.0006104101
0.003362996
0.001279242
0.005898335
0.002341746
0.007366722
0.002983045
0.005898336
0.002341746
0.003362996
0.001279242
0.001344604
0.074288
0.03063477
0.00788984
0.004949108
0.1221917
0.04370017
0.01152742
0.074288
0.03063477
0.004191431
0.02488629
0.013597
0.004952315
0.008233776
0.005583202
0.003151161
0.008237056
0.01296746
0.01203402
0.02068525
0.01495885
0.0271722
0.01495885
0.0271722
0.01203402
0.02068525
0.008237056
0.01296746
0.005181643
0.007450293
0.003180346
0.004233763
0.001969397
0.002468601
0.001249106
0.001495913
0.001137431
0.003149775
0.0110252
0.02361882
0.001216612
0.003530394
0.008132731
0.001137431
0.003149775
0.01633693
0.0009416561
0.002317953
0.006433546
0.000712454
0.001518653
0.004609593
)


106
(
1.535289e-35
1.052176e-34
0
2.7179e-33
0.001074966
0.000381948
0.001250106
0.0004464767
0.001318083
0.0004716549
0.001250106
0.0004464767
0.001074966
0.000381948
0.002688168
0.001017591
0.00363995
0.001408723
0.004071445
0.001590172
0.00363995
0.001408723
0.002688168
0.001017591
0.0008154005
0.0002933388
0.001916796
0.000720032
0.004894199
0.001985032
0.01135205
0.005117491
0.01623928
0.00773649
0.01135205
0.005117491
0.004894199
0.001985032
0.001615992
0.0008154005
0.0002933388
0.001916796
0.000720032
0.004894199
0.001985032
0.01135205
0.005117491
0.01623928
0.00773649
0.01135205
0.005117491
0.004894199
0.001985032
0.001615992
0.02488629
0.013597
0.004952315
0.004191431
0.074288
0.03063477
0.01152742
0.1221917
0.04370017
0.004949108
0.074288
0.03063477
0.00788984
0.02488629
0.013597
0.005580064
0.003180346
0.004233763
0.005181643
0.007450293
0.008237056
0.01296746
0.01203402
0.02068525
0.01495885
0.0271722
0.01495885
0.0271722
0.01203402
0.02068525
0.008237056
0.01296746
0.005181643
0.007450293
0.003180346
0.004233763
0.0009416561
0.002317953
0.006433546
0.01633693
0.001137431
0.003149775
0.008132731
0.001216612
0.003530394
0.02361882
0.001137431
0.003149775
0.0110252
0.0009416561
0.002317953
0.009382513
)


102
(
0.0008551783
0.0003017098
0.001074966
0.000381948
0.001250106
0.0004464767
0.001318083
0.0004716549
0.001250106
0.0004464767
0.001763563
0.0006509004
0.002688168
0.001017591
0.00363995
0.001408723
0.004071445
0.001590172
0.00363995
0.001408723
0.0008285561
0.0002945103
0.001669917
0.0006104101
0.003362996
0.001279242
0.005898335
0.002341746
0.007366722
0.002983045
0.005898336
0.002341746
0.003362996
0.001279242
0.001344604
0.0006270445
0.0002280801
0.001714279
0.0006637522