/*--------------------------------*- C++ -*----------------------------------*\
| =========                 |                                                 |
| \\      /  F ield         | OpenFOAM: The Open Source CFD Toolbox           |
|  \\    /   O peration     | Version:  v2012                                 |
|   \\  /    A nd           | Website:  www.openfoam.com                      |
|    \\/     M anipulation  |                                                 |
\*---------------------------------------------------------------------------*/
FoamFile
{
    version     2.0;
    format      ascii;
    class       labelListList;
    location    "constant/topAir";
    object      finalAgglom;
}
// * * * * * * * * * * * * * * * * * * * * * * * * * * * * * * * * * * * * * //


8
(

300
(
0
0
1
1
2
2
3
3
4
4
0
0
1
1
2
2
3
3
4
4
0
0
1
1
2
2
3
3
4
4
0
0
1
1
2
2
3
3
4
4
5
5
6
6
7
7
8
8
9
9
5
5
6
6
7
7
8
8
9
9
5
5
6
6
7
7
8
8
9
9
5
5
6
6
7
7
8
8
9
9
10
10
11
11
12
12
13
13
14
14
10
10
11
11
12
12
13
13
14
14
10
10
11
11
12
12
13
13
14
14
10
10
11
11
12
12
13
13
14
14
15
15
16
16
17
17
18
18
19
19
15
15
16
16
17
17
18
18
19
19
15
15
16
16
17
17
18
18
19
19
15
15
16
16
17
17
18
18
19
19
20
20
21
21
22
22
23
23
24
24
20
20
21
21
22
22
23
23
24
24
20
20
21
21
22
22
23
23
24
24
20
20
21
21
22
22
23
23
24
24
25
25
26
26
27
27
28
28
29
29
25
25
26
26
27
27
28
28
29
29
25
25
26
26
27
27
28
28
29
29
25
25
26
26
27
27
28
28
29
29
30
30
31
31
32
32
33
33
34
34
30
30
31
31
32
32
33
33
34
34
30
30
31
31
32
32
33
33
34
34
30
30
31
31
32
32
33
33
34
34
35
35
35
35
36
36
36
36
34
34
35
35
35
35
36
36
36
36
34
34
)


40
(
0
0
1
1
0
0
1
1
2
2
3
3
2
2
3
3
4
4
5
5
4
4
5
5
6
6
7
7
6
6
7
7
8
8
9
9
8
8
9
9
)


40
(
0
0
1
1
0
0
1
1
2
2
3
3
2
2
3
3
4
4
5
5
4
4
5
5
6
6
7
7
6
6
7
7
8
8
9
9
8
8
9
9
)


120
(
0
0
1
1
0
0
1
1
0
0
1
1
0
0
1
1
2
2
3
3
2
2
3
3
2
2
3
3
2
2
3
3
4
4
5
5
4
4
5
5
4
4
5
5
4
4
5
5
6
6
7
7
6
6
7
7
6
6
7
7
6
6
7
7
8
8
9
9
8
8
9
9
8
8
9
9
8
8
9
9
10
10
11
11
10
10
11
11
10
10
11
11
10
10
11
11
12
12
13
13
12
12
13
13
12
12
13
13
12
12
13
13
14
14
14
14
14
14
14
14
)


120
(
0
0
1
1
0
0
1
1
0
0
1
1
0
0
1
1
2
2
3
3
2
2
3
3
2
2
3
3
2
2
3
3
4
4
5
5
4
4
5
5
4
4
5
5
4
4
5
5
6
6
7
7
6
6
7
7
6
6
7
7
6
6
7
7
8
8
9
9
8
8
9
9
8
8
9
9
8
8
9
9
10
10
11
11
10
10
11
11
10
10
11
11
10
10
11
11
12
12
13
13
12
12
13
13
12
12
13
13
12
12
13
13
14
14
14
14
14
14
14
14
)


130
(
0
0
0
0
1
1
1
1
2
2
2
2
3
0
0
0
0
1
1
1
1
2
2
2
2
3
4
4
4
4
5
5
5
5
6
6
3
3
3
4
4
4
4
5
5
5
5
6
6
3
3
3
7
7
7
7
8
8
8
8
6
6
9
9
9
7
7
7
7
8
8
8
8
6
6
9
9
9
10
10
10
10
11
11
11
11
12
12
12
12
9
10
10
10
10
11
11
11
11
12
12
12
12
9
13
13
13
13
14
14
14
14
15
15
15
15
15
13
13
13
13
14
14
14
14
15
15
15
15
15
)


40
(
0
0
1
1
2
2
3
3
4
4
5
5
6
6
7
7
8
8
9
9
10
10
11
11
12
12
13
13
14
14
15
15
16
16
17
17
18
18
19
19
)


130
(
0
0
0
0
1
1
1
1
2
2
2
2
3
0
0
0
0
1
1
1
1
2
2
2
2
3
4
4
4
4
5
5
5
5
6
6
3
3
3
4
4
4
4
5
5
5
5
6
6
3
3
3
7
7
7
7
8
8
8
8
6
6
9
9
9
7
7
7
7
8
8
8
8
6
6
9
9
9
10
10
10
10
11
11
11
11
12
12
12
12
9
10
10
10
10
11
11
11
11
12
12
12
12
9
13
13
13
13
14
14
14
14
15
15
15
15
15
13
13
13
13
14
14
14
14
15
15
15
15
15
)

)


// ************************************************************************* //
